1

   Abaqus 2023                                  Date 01-Dec-2023   Time 12:05:42
   For use by Supplied by Team-SolidSQUAD under license from Dassault Systemes or its subsidiary.



                         The Abaqus Software is a product of:

                           Dassault Systemes SIMULIA Corp.
                           1301 Atwood Avenue, Suite 101W
                              Johnston, RI 02919, USA
 


                   The Abaqus Software is available only under license
                   from Dassault Systemes or its subsidiary and may be
                   used or reproduced only in accordance with the terms
                   of such license.
 
                          On machine Frank-Xiaoxin 
                          you are authorized to run
                          Abaqus/Standard until 31-Dec-2055

                          Your site id is:  


 
                    For assistance or any other information you may
                    obtain contact information for your local office
                    from the world wide web at:

                      http://www.3ds.com/products/simulia/locations/

 
                * * * * * * * * * * * * * * * * * * * * * * * * * * * * * * 
                *                                                         * 
                *                   *****************                     * 
                *                   *  N O T I C E  *                     * 
                *                   *****************                     * 
                *                                                         * 
                *                                                         * 
                *                       Abaqus 2023                       * 
                *                                                         * 
                *          BUILD ID: 2022_09_28-20.11.55 183150           * 
                *                                                         * 
                *                                                         * 
                *  Please make sure you are using                         * 
                *  release Abaqus 2023 manuals                            * 
                *  plus the notes accompanying this release.              * 
                *                                                         * 
                *                                                         * 
                *                                                         * 
                *                                                         * 
                * * * * * * * * * * * * * * * * * * * * * * * * * * * * * * 


 



     PROCESSING PART, INSTANCE, AND ASSEMBLY INFORMATION
   *******************************************************


     END PROCESSING PART, INSTANCE, AND ASSEMBLY INFORMATION
   ***********************************************************




     OPTIONS BEING PROCESSED
   ***************************


  *Heading
  *Node
  *Element, type=C3D8R
  *Nset, nset=ASSEMBLY_BOTTOM-1__PICKEDSET15
  *Elset, elset=ASSEMBLY_BOTTOM-1__PICKEDSET15
  *Node
  *Element, type=C3D8R
  *Nset, nset=ASSEMBLY_TOP-1__PICKEDSET3
  *Elset, elset=ASSEMBLY_TOP-1__PICKEDSET3
  *Node
  *Element, type=C3D10
  *Nset, nset=ASSEMBLY_NOTCH-BOTTOM-1__PICKEDSET2
  *Elset, elset=ASSEMBLY_NOTCH-BOTTOM-1__PICKEDSET2
  *Node
  *Element, type=C3D8R
  *Nset, nset=ASSEMBLY_NOTCH-MIDDLE-1__PICKEDSET2
  *Elset, elset=ASSEMBLY_NOTCH-MIDDLE-1__PICKEDSET2
  *Node
  *Element, type=C3D10
  *Nset, nset=ASSEMBLY_NOTCH-TOP-1__PICKEDSET2
  *Elset, elset=ASSEMBLY_NOTCH-TOP-1__PICKEDSET2
  *Node
  *Element, type=C3D8R
  *Nset, nset=ASSEMBLY_BOTTOM-PLATE-1__PICKEDSET2
  *Elset, elset=ASSEMBLY_BOTTOM-PLATE-1__PICKEDSET2
  *Node
  *Element, type=C3D8R
  *Nset, nset=ASSEMBLY_TOP-PLATE-1__PICKEDSET2
  *Elset, elset=ASSEMBLY_TOP-PLATE-1__PICKEDSET2
  *Nset, nset=ASSEMBLY_BOTTOM-224MM
  *Nset, nset=ASSEMBLY_BOTTOM-4MM
  *Nset, nset=ASSEMBLY_BOTTOM-50MM
  *Nset, nset=ASSEMBLY_SECTION
  *Nset, nset=ASSEMBLY_TOP-224MM
  *Nset, nset=ASSEMBLY_TOP-4MM
  *Nset, nset=ASSEMBLY_TOP-50MM
  *Nset, nset=ASSEMBLY__PICKEDSET239
  *Nset, nset=ASSEMBLY__PICKEDSET250
  *Elset, elset=ASSEMBLY__PICKEDSET239
  *Elset, elset=ASSEMBLY__PICKEDSET250
  *Elset, elset=ASSEMBLY___PICKEDSURF187_S2
  *Elset, elset=ASSEMBLY___PICKEDSURF188_S1
  *Elset, elset=ASSEMBLY___PICKEDSURF188_S2
  *Elset, elset=ASSEMBLY___PICKEDSURF188_S3
  *Elset, elset=ASSEMBLY___PICKEDSURF188_S4
  *Elset, elset=ASSEMBLY___PICKEDSURF189_S2
  *Elset, elset=ASSEMBLY___PICKEDSURF190_S1
  *Elset, elset=ASSEMBLY___PICKEDSURF190_S2
  *Elset, elset=ASSEMBLY___PICKEDSURF190_S3
  *Elset, elset=ASSEMBLY___PICKEDSURF190_S4
  *Elset, elset=ASSEMBLY___PICKEDSURF191_S1
  *Elset, elset=ASSEMBLY___PICKEDSURF192_S1
  *Elset, elset=ASSEMBLY___PICKEDSURF192_S2
  *Elset, elset=ASSEMBLY___PICKEDSURF192_S3
  *Elset, elset=ASSEMBLY___PICKEDSURF192_S4
  *Elset, elset=ASSEMBLY___PICKEDSURF193_S2
  *Elset, elset=ASSEMBLY___PICKEDSURF194_S1
  *Elset, elset=ASSEMBLY___PICKEDSURF194_S2
  *Elset, elset=ASSEMBLY___PICKEDSURF194_S3
  *Elset, elset=ASSEMBLY___PICKEDSURF194_S4
  *Elset, elset=ASSEMBLY___PICKEDSURF200_S2
  *Elset, elset=ASSEMBLY___PICKEDSURF223_S2
  *Elset, elset=ASSEMBLY___PICKEDSURF248_S2
  *Elset, elset=ASSEMBLY___PICKEDSURF249_S1
  *material, name=STEEL
  *density
  *elastic
  *material, name=STEEP#1
  *density
  *elastic
  *concretedamagedplasticity

 ***WARNING: THE RATIO, RHO, OF THE SECOND DEVIATORIC INVARIANTS ALONG TENSILE 
             AND COMPRESSIVE MERIDIANS SHOULD BE LARGER THAN 0.5. A VALUE OF 
             0.51000 WILL BE ASSUMED.
  *concretecompressionhardening

 ***WARNING: IN THE OPTION *CONCRETE COMPRESSION HARDENING, STRESS VALUES 
             SMALLER THAN THE MINIMUM (1.00000E-02 TIMES THE STRESS AT INITIAL 
             YIELD) HAVE BEEN SPECIFIED. THE MINIMUM VALUE WILL BE ASSUMED.
  *concretetensionstiffening, type=DISPLACEMENT

 ***WARNING: IN THE OPTION *CONCRETE TENSION STIFFENING, STRESS VALUES SMALLER 
             THAN THE MINIMUM (1.00000E-02 TIMES THE INITIAL FAILURE STRESS) 
             HAVE BEEN SPECIFIED. THE MINIMUM VALUE WILL BE ASSUMED.
  *solidsection, elset=ASSEMBLY_BOTTOM-1__PICKEDSET15, material=STEEP#1
  *solidsection, elset=ASSEMBLY_TOP-1__PICKEDSET3, material=STEEP#1
  *solidsection, elset=ASSEMBLY_NOTCH-BOTTOM-1__PICKEDSET2, material=STEEP#1
  *solidsection, elset=ASSEMBLY_NOTCH-MIDDLE-1__PICKEDSET2, material=STEEP#1
  *solidsection, elset=ASSEMBLY_NOTCH-TOP-1__PICKEDSET2, material=STEEP#1
  *solidsection, elset=ASSEMBLY_BOTTOM-PLATE-1__PICKEDSET2, material=STEEL
  *solidsection, elset=ASSEMBLY_TOP-PLATE-1__PICKEDSET2, material=STEEL
  *solidsection, elset=ASSEMBLY_BOTTOM-1__PICKEDSET15, material=STEEP#1
  *solidsection, elset=ASSEMBLY_TOP-1__PICKEDSET3, material=STEEP#1
  *solidsection, elset=ASSEMBLY_NOTCH-BOTTOM-1__PICKEDSET2, material=STEEP#1
  *solidsection, elset=ASSEMBLY_NOTCH-MIDDLE-1__PICKEDSET2, material=STEEP#1
  *solidsection, elset=ASSEMBLY_NOTCH-TOP-1__PICKEDSET2, material=STEEP#1
  *solidsection, elset=ASSEMBLY_BOTTOM-PLATE-1__PICKEDSET2, material=STEEL
  *solidsection, elset=ASSEMBLY_TOP-PLATE-1__PICKEDSET2, material=STEEL
  *tie, name=ASSEMBLY_CONSTRAINT-1, adjust=YES
  *tie, name=ASSEMBLY_CONSTRAINT-2, adjust=YES
  *tie, name=ASSEMBLY_CONSTRAINT-3, adjust=YES
  *tie, name=ASSEMBLY_CONSTRAINT-4, adjust=YES
  *tie, name=ASSEMBLY_CONSTRAINT-5, adjust=YES
  *tie, name=ASSEMBLY_CONSTRAINT-6, adjust=YES
  *surface, type=ELEMENT, name=ASSEMBLY__PICKEDSURF187
  *surface, type=ELEMENT, name=ASSEMBLY__PICKEDSURF188
  *surface, type=ELEMENT, name=ASSEMBLY__PICKEDSURF189
  *surface, type=ELEMENT, name=ASSEMBLY__PICKEDSURF190
  *surface, type=ELEMENT, name=ASSEMBLY__PICKEDSURF191
  *surface, type=ELEMENT, name=ASSEMBLY__PICKEDSURF192
  *surface, type=ELEMENT, name=ASSEMBLY__PICKEDSURF193
  *surface, type=ELEMENT, name=ASSEMBLY__PICKEDSURF194
  *surface, type=ELEMENT, name=ASSEMBLY__PICKEDSURF200
  *surface, type=ELEMENT, name=ASSEMBLY__PICKEDSURF223
  *surface, type=ELEMENT, name=ASSEMBLY__PICKEDSURF248
  *surface, type=ELEMENT, name=ASSEMBLY__PICKEDSURF249
  *tie, name=ASSEMBLY_CONSTRAINT-1, adjust=YES
  *tie, name=ASSEMBLY_CONSTRAINT-2, adjust=YES
  *tie, name=ASSEMBLY_CONSTRAINT-3, adjust=YES
  *tie, name=ASSEMBLY_CONSTRAINT-4, adjust=YES
  *tie, name=ASSEMBLY_CONSTRAINT-5, adjust=YES
  *tie, name=ASSEMBLY_CONSTRAINT-6, adjust=YES
  *surface, type=ELEMENT, name=ASSEMBLY__PICKEDSURF187
  *surface, type=ELEMENT, name=ASSEMBLY__PICKEDSURF188
  *surface, type=ELEMENT, name=ASSEMBLY__PICKEDSURF189
  *surface, type=ELEMENT, name=ASSEMBLY__PICKEDSURF190
  *surface, type=ELEMENT, name=ASSEMBLY__PICKEDSURF191
  *surface, type=ELEMENT, name=ASSEMBLY__PICKEDSURF192
  *surface, type=ELEMENT, name=ASSEMBLY__PICKEDSURF193
  *surface, type=ELEMENT, name=ASSEMBLY__PICKEDSURF194
  *surface, type=ELEMENT, name=ASSEMBLY__PICKEDSURF200
  *surface, type=ELEMENT, name=ASSEMBLY__PICKEDSURF223
  *surface, type=ELEMENT, name=ASSEMBLY__PICKEDSURF248
  *surface, type=ELEMENT, name=ASSEMBLY__PICKEDSURF249
  *surface, type=ELEMENT, name=ASSEMBLY__PICKEDSURF187
  *surface, type=ELEMENT, name=ASSEMBLY__PICKEDSURF188
  *surface, type=ELEMENT, name=ASSEMBLY__PICKEDSURF189
  *surface, type=ELEMENT, name=ASSEMBLY__PICKEDSURF190
  *surface, type=ELEMENT, name=ASSEMBLY__PICKEDSURF191
  *surface, type=ELEMENT, name=ASSEMBLY__PICKEDSURF192
  *surface, type=ELEMENT, name=ASSEMBLY__PICKEDSURF193
  *surface, type=ELEMENT, name=ASSEMBLY__PICKEDSURF194
  *surface, type=ELEMENT, name=ASSEMBLY__PICKEDSURF200
  *surface, type=ELEMENT, name=ASSEMBLY__PICKEDSURF223
  *surface, type=ELEMENT, name=ASSEMBLY__PICKEDSURF248
  *surface, type=ELEMENT, name=ASSEMBLY__PICKEDSURF249
  *tie, name=ASSEMBLY_CONSTRAINT-1, adjust=YES
  *tie, name=ASSEMBLY_CONSTRAINT-2, adjust=YES
  *tie, name=ASSEMBLY_CONSTRAINT-3, adjust=YES
  *tie, name=ASSEMBLY_CONSTRAINT-4, adjust=YES
  *tie, name=ASSEMBLY_CONSTRAINT-5, adjust=YES
  *tie, name=ASSEMBLY_CONSTRAINT-6, adjust=YES
  *tie, name=ASSEMBLY_CONSTRAINT-1, adjust=YES
  *tie, name=ASSEMBLY_CONSTRAINT-2, adjust=YES
  *tie, name=ASSEMBLY_CONSTRAINT-3, adjust=YES
  *tie, name=ASSEMBLY_CONSTRAINT-4, adjust=YES
  *tie, name=ASSEMBLY_CONSTRAINT-5, adjust=YES
  *tie, name=ASSEMBLY_CONSTRAINT-6, adjust=YES
  *boundary, amplitude=AMP-1
  *boundary
  *boundary, amplitude=AMP-1
  *boundary
  *tie, name=ASSEMBLY_CONSTRAINT-1, adjust=YES

 ***WARNING: FOR *TIE PAIR (ASSEMBLY__PICKEDSURF188-ASSEMBLY__PICKEDSURF187), 
             ADJUSTED NODES WITH VERY SMALL ADJUSTMENTS WERE NOT PRINTED. 
             SPECIFY *PREPRINT,MODEL=YES FOR COMPLETE PRINTOUT.
  *tie, name=ASSEMBLY_CONSTRAINT-2, adjust=YES

 ***WARNING: FOR *TIE PAIR (ASSEMBLY__PICKEDSURF190-ASSEMBLY__PICKEDSURF189), 
             ADJUSTED NODES WITH VERY SMALL ADJUSTMENTS WERE NOT PRINTED. 
             SPECIFY *PREPRINT,MODEL=YES FOR COMPLETE PRINTOUT.
  *tie, name=ASSEMBLY_CONSTRAINT-3, adjust=YES

 ***WARNING: FOR *TIE PAIR (ASSEMBLY__PICKEDSURF192-ASSEMBLY__PICKEDSURF191), 
             ADJUSTED NODES WITH VERY SMALL ADJUSTMENTS WERE NOT PRINTED. 
             SPECIFY *PREPRINT,MODEL=YES FOR COMPLETE PRINTOUT.
  *tie, name=ASSEMBLY_CONSTRAINT-4, adjust=YES

 ***WARNING: FOR *TIE PAIR (ASSEMBLY__PICKEDSURF194-ASSEMBLY__PICKEDSURF193), 
             ADJUSTED NODES WITH VERY SMALL ADJUSTMENTS WERE NOT PRINTED. 
             SPECIFY *PREPRINT,MODEL=YES FOR COMPLETE PRINTOUT.
  *tie, name=ASSEMBLY_CONSTRAINT-5, adjust=YES

 ***WARNING: FOR *TIE PAIR (ASSEMBLY__PICKEDSURF200-ASSEMBLY__PICKEDSURF249), 
             ADJUSTED NODES WITH VERY SMALL ADJUSTMENTS WERE NOT PRINTED. 
             SPECIFY *PREPRINT,MODEL=YES FOR COMPLETE PRINTOUT.
  *tie, name=ASSEMBLY_CONSTRAINT-6, adjust=YES

 ***WARNING: FOR *TIE PAIR (ASSEMBLY__PICKEDSURF223-ASSEMBLY__PICKEDSURF248), 
             ADJUSTED NODES WITH VERY SMALL ADJUSTMENTS WERE NOT PRINTED. 
             SPECIFY *PREPRINT,MODEL=YES FOR COMPLETE PRINTOUT.
  *tie, name=ASSEMBLY_CONSTRAINT-1, adjust=YES
  *tie, name=ASSEMBLY_CONSTRAINT-2, adjust=YES
  *tie, name=ASSEMBLY_CONSTRAINT-3, adjust=YES
  *tie, name=ASSEMBLY_CONSTRAINT-4, adjust=YES
  *tie, name=ASSEMBLY_CONSTRAINT-5, adjust=YES
  *tie, name=ASSEMBLY_CONSTRAINT-6, adjust=YES
  *tie, name=ASSEMBLY_CONSTRAINT-1, adjust=YES
  *tie, name=ASSEMBLY_CONSTRAINT-2, adjust=YES
  *tie, name=ASSEMBLY_CONSTRAINT-3, adjust=YES
  *tie, name=ASSEMBLY_CONSTRAINT-4, adjust=YES
  *tie, name=ASSEMBLY_CONSTRAINT-5, adjust=YES
  *tie, name=ASSEMBLY_CONSTRAINT-6, adjust=YES
  *surface, type=ELEMENT, name=ASSEMBLY__PICKEDSURF187
  *surface, type=ELEMENT, name=ASSEMBLY__PICKEDSURF188
  *surface, type=ELEMENT, name=ASSEMBLY__PICKEDSURF189
  *surface, type=ELEMENT, name=ASSEMBLY__PICKEDSURF190
  *surface, type=ELEMENT, name=ASSEMBLY__PICKEDSURF191
  *surface, type=ELEMENT, name=ASSEMBLY__PICKEDSURF192
  *surface, type=ELEMENT, name=ASSEMBLY__PICKEDSURF193
  *surface, type=ELEMENT, name=ASSEMBLY__PICKEDSURF194
  *surface, type=ELEMENT, name=ASSEMBLY__PICKEDSURF200
  *surface, type=ELEMENT, name=ASSEMBLY__PICKEDSURF223
  *surface, type=ELEMENT, name=ASSEMBLY__PICKEDSURF248
  *surface, type=ELEMENT, name=ASSEMBLY__PICKEDSURF249
  *tie, name=ASSEMBLY_CONSTRAINT-1, adjust=YES
  *tie, name=ASSEMBLY_CONSTRAINT-2, adjust=YES
  *tie, name=ASSEMBLY_CONSTRAINT-3, adjust=YES
  *tie, name=ASSEMBLY_CONSTRAINT-4, adjust=YES
  *tie, name=ASSEMBLY_CONSTRAINT-5, adjust=YES
  *tie, name=ASSEMBLY_CONSTRAINT-6, adjust=YES
  *output, field
  *output, field, variable=PRESELECT
  *output, history, frequency=0
  *output, field
  *output, field, variable=PRESELECT
  *output, history, frequency=0
  *output, field
  *output, field, variable=PRESELECT
  *output, history, frequency=0
  
                               E L E M E N T   Q U A L I T Y  C H E C K S        
  
  
 ***NOTES: DISTORTED ISOPARAMETRIC ELEMENTS: ANGLE BETWEEN ISOPARAMETRIC LINES 
           IS LESS THAN 45 DEGREES OR GREATER THAN 135 DEGREES.
  
           TETRAHEDRAL QUALITY MEASURE: VOLUME OF TETRAHEDRON DIVIDED BY THE 
           VOLUME OF EQUILATERAL TETRAHEDRON WITH SAME CIRCUMSPHERE RADIUS; 
           0 FOR DEGENERATE TETRAHEDRON AND 1 FOR EQUILATERIAL TETRAHEDRON. IT 
           IS RECOMMENDED THAT THE TETRAHEDRAL QUALITY MEASURE BE GREATER THAN 
           0.02, THE MIN INTERIOR (DIHEDRAL) ANGLE BE GREATER THAN 10 DEGREES, 
           AND THE MAX INTERIOR (DIHEDRAL) ANGLE BE LESS THAN 160 DEGREES. 
  
           MODIFIED TETRAHEDRAL QUALITY MEASURE: ANGLES BETWEEN THE TWO LINE 
           SEGMENTS ON EACH EDGE; THE EDGES OF MODIFIED TETRAHEDRAL SHOULD BE 
           AS STRAIGHT AS POSSIBLE. IT IS RECOMMENDED THAT THE ANGLE BETWEEN 
           THE TWO LINE SEGMENTS ON EACH EDGE IS BETWEEN 160 AND 180 DEGREES. 
  
           TRIANGULAR QUALITY MEASURE: AREA OF TRIANGLE DIVIDED BY THE AREA OF 
           EQUILATERAL TRIANGLE WITH SAME CIRCUMCIRCLE RADIUS; 0 FOR DEGENERATE 
           TRIANGLE AND 1 FOR EQUILATERAL TRIANGLE. IT IS RECOMMENDED THAT THE
           TRIANGULAR QUALITY MEASURE BE GREATER THAN 0.01, THE MIN INTERIOR 
           ANGLE BE GREATER THAN 10 DEGREES, AND THE MAX INTERIOR ANGLE BE LESS 
           THAN 160 DEGREES. 
  
           NODAL ADJUSTMENTS ARISING FROM CONTACT INTERACTIONS AND/OR TIE 
           CONSTRAINTS CAN CAUSE SEVERE ELEMENT DISTORTION. IT MAY BE NECESSARY 
           TO REMESH IN ORDER TO REDUCE THE AMOUNT OF ADJUSTMENT. 

 ***WARNING: 3491 elements are distorted. Either the isoparametric angles are 
             out of the suggested limits or the triangular or tetrahedral 
             quality measure is bad. The elements have been identified in 
             element set WarnElemDistorted.
  
 --------------------------------------------------------------------------------
 Distorted tetrahedral elements
  
         Element          Quality measure     Min angle        Max angle     Adjusted nodes 
 ------------------------ ---------------- ---------------- ---------------- -------------- 
         NOTCH-BOTTOM-1.1        0.0488279           5.7177          113.828       NO       
         NOTCH-BOTTOM-1.2        0.0123213          12.1746          148.671       NO       
         NOTCH-BOTTOM-1.3      0.000151437          4.35082          171.498       NO       
         NOTCH-BOTTOM-1.4         0.063708          5.85172           98.342       NO       
         NOTCH-BOTTOM-1.5      0.000135987          5.68254          171.847       NO       
         NOTCH-BOTTOM-1.6       0.00276746          5.35015          134.445       NO       
         NOTCH-BOTTOM-1.7         0.122456          7.98873          95.9655       NO       
         NOTCH-BOTTOM-1.8      0.000394397          4.54863          172.266       NO       
         NOTCH-BOTTOM-1.9      0.000453587          5.54774          164.509       NO       
        NOTCH-BOTTOM-1.10       0.00480377          7.67953          167.526       NO       
        NOTCH-BOTTOM-1.11        0.0583323          9.17464          149.654       NO       
        NOTCH-BOTTOM-1.12         0.042241           5.0117          155.615       NO       
        NOTCH-BOTTOM-1.13       0.00538646          6.45677          167.635       NO       
        NOTCH-BOTTOM-1.14      0.000871167          5.56735          168.842       NO       
        NOTCH-BOTTOM-1.15       0.00262208          3.18563          173.441       NO       
        NOTCH-BOTTOM-1.17        0.0114078          4.23758          150.207       NO       
        NOTCH-BOTTOM-1.18       0.00279183          8.74288          158.679       NO       
        NOTCH-BOTTOM-1.19      0.000182038          5.16343          170.361       NO       
        NOTCH-BOTTOM-1.20        0.0233537          5.77716          165.118       NO       
        NOTCH-BOTTOM-1.21      0.000336736          4.45292          171.257       NO       
        NOTCH-BOTTOM-1.22         0.012536          2.60995          175.762       NO       
        NOTCH-BOTTOM-1.24       0.00704642          11.0381          149.784       NO       
        NOTCH-BOTTOM-1.25         0.136079          7.26473          160.856       NO       
        NOTCH-BOTTOM-1.26        0.0200759           8.0609          156.759       NO       
        NOTCH-BOTTOM-1.27         0.119126          11.0069          161.189       NO       
        NOTCH-BOTTOM-1.29       0.00594215           6.4614           167.26       NO       
        NOTCH-BOTTOM-1.30       0.00760984          4.78115          171.413       NO       
        NOTCH-BOTTOM-1.31       0.00929911          9.81067          142.436       NO       
        NOTCH-BOTTOM-1.32        0.0345141          8.66003           125.68       NO       
        NOTCH-BOTTOM-1.33        0.0440212          7.94745          137.821       NO       
        NOTCH-BOTTOM-1.34         0.138816          7.21216          161.756       NO       
        NOTCH-BOTTOM-1.35         0.187013          8.45575          146.787       NO       
        NOTCH-BOTTOM-1.36       0.00674621          9.86721          151.083       NO       
        NOTCH-BOTTOM-1.37        0.0335192          9.90639          151.153       NO       
        NOTCH-BOTTOM-1.38         0.106897          7.91027           156.75       NO       
        NOTCH-BOTTOM-1.39        0.0312537          7.69172          158.617       NO       
        NOTCH-BOTTOM-1.42        0.0187444          8.96564          158.517       NO       
        NOTCH-BOTTOM-1.43        0.0695443          8.46466          153.725       NO       
        NOTCH-BOTTOM-1.44        0.0268686          8.08971           160.08       NO       
        NOTCH-BOTTOM-1.45         0.125464          8.27315           156.89       NO       
        NOTCH-BOTTOM-1.46        0.0171872          11.5517          159.685       NO       
        NOTCH-BOTTOM-1.47       0.00527335          8.67153          160.473       NO       
        NOTCH-BOTTOM-1.49        0.0104972          8.40004          166.779       NO       
        NOTCH-BOTTOM-1.50       0.00787793          10.3726          147.268       NO       
        NOTCH-BOTTOM-1.52        0.0129052          9.02639          155.258       NO       
        NOTCH-BOTTOM-1.53        0.0530165          9.77024          153.723       NO       
        NOTCH-BOTTOM-1.54      0.000243683          6.92824          167.146       NO       
        NOTCH-BOTTOM-1.55      0.000394821          4.80336          172.158       NO       
        NOTCH-BOTTOM-1.56         0.122053          6.29876          153.982       NO       
        NOTCH-BOTTOM-1.57        0.0763281          6.44573          124.453       NO       
        NOTCH-BOTTOM-1.58         0.134455          6.75011           126.84       NO       
        NOTCH-BOTTOM-1.59         0.149368          6.96166           123.52       NO       
        NOTCH-BOTTOM-1.60        0.0232152          8.71743          134.415       NO       
        NOTCH-BOTTOM-1.61        0.0320267          7.73343          158.523       NO       
        NOTCH-BOTTOM-1.62        0.0216741          6.48288          167.659       NO       
        NOTCH-BOTTOM-1.63        0.0193311          3.18563          172.955       NO       
        NOTCH-BOTTOM-1.64      0.000439558           6.4212           160.92       NO       
        NOTCH-BOTTOM-1.65        0.0400928           7.3102          137.053       NO       
        NOTCH-BOTTOM-1.66       0.00363426          6.07205          146.977       NO       
        NOTCH-BOTTOM-1.67        0.0169167          4.91908          171.333       NO       
        NOTCH-BOTTOM-1.68        0.0092217          9.63687          148.864       NO       
        NOTCH-BOTTOM-1.69        0.0210203          6.41602          167.674       NO       
        NOTCH-BOTTOM-1.70        0.0137858          4.89928           171.36       NO       
        NOTCH-BOTTOM-1.71        0.0369126          7.74313          157.469       NO       
        NOTCH-BOTTOM-1.73        0.0670625          8.43975          140.972       NO       
        NOTCH-BOTTOM-1.75       0.00469861          11.4852          156.795       NO       
        NOTCH-BOTTOM-1.76         0.103136          6.57815          106.395       NO       
        NOTCH-BOTTOM-1.77        0.0858132          9.11989          157.317       NO       
        NOTCH-BOTTOM-1.78        0.0253481          8.72727          158.761       NO       
        NOTCH-BOTTOM-1.80        0.0312137          7.99498          140.368       NO       
        NOTCH-BOTTOM-1.81         0.189075          8.49487          146.851       NO       
        NOTCH-BOTTOM-1.82        0.0132249           9.0957          155.542       NO       
        NOTCH-BOTTOM-1.84       0.00192565           6.2039          167.992       NO       
        NOTCH-BOTTOM-1.85        0.0903269          7.51731           144.57       NO       
        NOTCH-BOTTOM-1.86        0.0365605          9.98815          160.651       NO       
        NOTCH-BOTTOM-1.87       0.00243133          3.18563            172.9       NO       
        NOTCH-BOTTOM-1.88      0.000437686          5.96634          160.918       NO       
        NOTCH-BOTTOM-1.89      0.000297833          6.47095          167.548       NO       
        NOTCH-BOTTOM-1.90      0.000969689          7.09989          166.762       NO       
        NOTCH-BOTTOM-1.91      0.000438831          6.62071          162.395       NO       
        NOTCH-BOTTOM-1.92        0.0253881          10.6224          162.764       NO       
        NOTCH-BOTTOM-1.93        0.0150518          9.29523          158.899       NO       
        NOTCH-BOTTOM-1.94         0.041109          7.94101           142.32       NO       
        NOTCH-BOTTOM-1.96         0.129379          8.16426          140.417       NO       
        NOTCH-BOTTOM-1.97        0.0140883          4.90664          171.369       NO       
        NOTCH-BOTTOM-1.98        0.0710487          6.44387          105.535       NO       
        NOTCH-BOTTOM-1.99       0.00371017          13.9538          154.019       NO       
       NOTCH-BOTTOM-1.100       0.00956783          12.2925          158.072       NO       
       NOTCH-BOTTOM-1.102         0.030906          12.3281          162.296       NO       
       NOTCH-BOTTOM-1.103       0.00717558          8.64555          156.718       NO       
       NOTCH-BOTTOM-1.105        0.0428834          9.20066            161.3       NO       
       NOTCH-BOTTOM-1.106       0.00544986          11.8466          149.372       NO       
       NOTCH-BOTTOM-1.107         0.115937          5.98501          114.815       NO       
       NOTCH-BOTTOM-1.108        0.0253682          9.07304          150.313       NO       
       NOTCH-BOTTOM-1.109        0.0178848          7.74388          149.682       NO       
       NOTCH-BOTTOM-1.110       0.00985323          6.54196          167.645       NO       
       NOTCH-BOTTOM-1.111        0.0929341          8.98236          152.165       NO       
       NOTCH-BOTTOM-1.112        0.0336069          8.06781          153.771       NO       
       NOTCH-BOTTOM-1.113        0.0230993          3.18563          172.891       NO       
       NOTCH-BOTTOM-1.114      0.000295973          6.55933          167.526       NO       
       NOTCH-BOTTOM-1.115       0.00023517          7.22005          166.839       NO       
       NOTCH-BOTTOM-1.116       0.00415136          6.04927          146.271       NO       
       NOTCH-BOTTOM-1.117        0.0847023          5.97204          124.454       NO       
       NOTCH-BOTTOM-1.118         0.148324          6.54191          107.605       NO       
       NOTCH-BOTTOM-1.119         0.132962           6.2334          99.9302       NO       
       NOTCH-BOTTOM-1.120        0.0770743          7.26948          127.027       NO       
       NOTCH-BOTTOM-1.121         0.156378          6.86829          124.661       NO       
       NOTCH-BOTTOM-1.122         0.109084          6.72047          107.065       NO       
       NOTCH-BOTTOM-1.123         0.116226          6.16715           115.29       NO       
       NOTCH-BOTTOM-1.124         0.123995          6.86391          109.839       NO       
       NOTCH-BOTTOM-1.125      0.000336816          4.45292          171.344       NO       
       NOTCH-BOTTOM-1.126         0.140295          6.32836          97.9285       NO       
       NOTCH-BOTTOM-1.127       0.00762304          11.4664          160.099       NO       
       NOTCH-BOTTOM-1.128       0.00760809          11.5872          151.481       NO       
       NOTCH-BOTTOM-1.131       0.00753468          13.1717          156.726       NO       
       NOTCH-BOTTOM-1.133        0.0449267          7.86303          134.767       NO       
       NOTCH-BOTTOM-1.134         0.152016          7.79498          142.038       NO       
       NOTCH-BOTTOM-1.135        0.0835699          7.51757          148.659       NO       
       NOTCH-BOTTOM-1.136         0.124835          7.21618          148.587       NO       
       NOTCH-BOTTOM-1.137        0.0108246          6.76925          136.207       NO       
       NOTCH-BOTTOM-1.138       0.00976259          5.89484          167.717       NO       
       NOTCH-BOTTOM-1.139       0.00759036          7.88263          158.674       NO       
       NOTCH-BOTTOM-1.140        0.0196593          2.92659          149.902       NO       
       NOTCH-BOTTOM-1.141      0.000937004           7.0445          166.646       NO       
       NOTCH-BOTTOM-1.142        0.0108277          3.18563          173.072       NO       
       NOTCH-BOTTOM-1.143        0.0578417          7.40532          143.222       NO       
       NOTCH-BOTTOM-1.144        0.0020746           6.0664          168.025       NO       
       NOTCH-BOTTOM-1.145        0.0210726           7.8204          151.455       NO       
       NOTCH-BOTTOM-1.147        0.0105518          9.17919          152.423       NO       
       NOTCH-BOTTOM-1.148        0.0182105          7.95886          151.286       NO       
       NOTCH-BOTTOM-1.149       0.00039175          3.18563          174.844       NO       
       NOTCH-BOTTOM-1.150      0.000356492          6.69499          167.602       NO       
       NOTCH-BOTTOM-1.152        0.0114078          2.92659          150.207       NO       
       NOTCH-BOTTOM-1.153          0.08647          7.08208          162.819       NO       
       NOTCH-BOTTOM-1.154        0.0711279          6.02072           119.13       NO       
       NOTCH-BOTTOM-1.155         0.112396          6.12756             124.       NO       
       NOTCH-BOTTOM-1.156         0.156879           6.9488          106.891       NO       
       NOTCH-BOTTOM-1.157         0.123165          6.99771          110.194       NO       
       NOTCH-BOTTOM-1.158        0.0934398          6.75816          126.933       NO       
       NOTCH-BOTTOM-1.159         0.102391          7.09774          119.336       NO       
       NOTCH-BOTTOM-1.160         0.146166          6.85822          123.211       NO       
       NOTCH-BOTTOM-1.161         0.154522          6.82806          116.422       NO       
       NOTCH-BOTTOM-1.162         0.129898          7.47406          127.111       NO       
       NOTCH-BOTTOM-1.163          0.16086          7.05808           124.03       NO       
       NOTCH-BOTTOM-1.164         0.137782          7.85281          141.511       NO       
       NOTCH-BOTTOM-1.165        0.0730033          7.60512          145.052       NO       
       NOTCH-BOTTOM-1.166        0.0643735          7.57521          139.614       NO       
       NOTCH-BOTTOM-1.167         0.168084          7.26925          130.121       NO       
       NOTCH-BOTTOM-1.168       0.00522005          8.22922          151.326       NO       
       NOTCH-BOTTOM-1.169        0.0225324          9.69674          157.991       NO       
       NOTCH-BOTTOM-1.171       0.00761272          8.07778          167.146       NO       
       NOTCH-BOTTOM-1.172       0.00238609          6.09698          167.717       NO       
       NOTCH-BOTTOM-1.173        0.0226869          5.93664           147.53       NO       
       NOTCH-BOTTOM-1.174         0.042445          8.28497          136.417       NO       
       NOTCH-BOTTOM-1.175         0.114952          6.30021          147.109       NO       
       NOTCH-BOTTOM-1.176         0.017511          6.31844          167.692       NO       
       NOTCH-BOTTOM-1.177        0.0264152           7.9474          128.394       NO       
       NOTCH-BOTTOM-1.178        0.0772304           8.9434          143.525       NO       
       NOTCH-BOTTOM-1.179       0.00677996          12.3777          154.248       NO       
       NOTCH-BOTTOM-1.180         0.161117          7.09202          125.007       NO       
       NOTCH-BOTTOM-1.181        0.0821404          7.23566          128.074       NO       
       NOTCH-BOTTOM-1.182         0.163263           7.1165           123.84       NO       
       NOTCH-BOTTOM-1.183        0.0898304          6.96324          141.656       NO       
       NOTCH-BOTTOM-1.184         0.102229          7.08355          119.344       NO       
       NOTCH-BOTTOM-1.185         0.144086          6.60796           99.815       NO       
       NOTCH-BOTTOM-1.186        0.0991052          6.75563          118.967       NO       
       NOTCH-BOTTOM-1.187         0.149098          6.67474           113.57       NO       
       NOTCH-BOTTOM-1.188        0.0699665           6.9417          127.107       NO       
       NOTCH-BOTTOM-1.189          0.10927          7.99929          114.034       NO       
       NOTCH-BOTTOM-1.190        0.0755967           6.6653          128.259       NO       
       NOTCH-BOTTOM-1.191        0.0640976          9.12131          153.137       NO       
       NOTCH-BOTTOM-1.192      0.000156813           4.3702          171.321       NO       
       NOTCH-BOTTOM-1.193         0.150041          8.50232          98.7032       NO       
       NOTCH-BOTTOM-1.194         0.135502          7.15062          99.1039       NO       
       NOTCH-BOTTOM-1.195       0.00023926          6.86483          167.246       NO       
       NOTCH-BOTTOM-1.196        0.0529962          8.67839          98.2758       NO       
       NOTCH-BOTTOM-1.197        0.0911712          8.04947              90.       NO       
       NOTCH-BOTTOM-1.198         0.012536          3.18563          145.297       NO       
       NOTCH-BOTTOM-1.199        0.0238176          3.18563          172.941       NO       
       NOTCH-BOTTOM-1.200       0.00806337          11.0929          155.648       NO       
       NOTCH-BOTTOM-1.201       0.00992629          9.39928           143.05       NO       
       NOTCH-BOTTOM-1.202       0.00564931          12.7891          159.829       NO       
       NOTCH-BOTTOM-1.204        0.0571648          9.77551          153.572       NO       
       NOTCH-BOTTOM-1.205       0.00811232          9.09433          159.457       NO       
       NOTCH-BOTTOM-1.206       0.00978202          9.98521          149.669       NO       
       NOTCH-BOTTOM-1.207       0.00457578          6.25928          167.381       NO       
       NOTCH-BOTTOM-1.208         0.133966          9.36505          151.688       NO       
       NOTCH-BOTTOM-1.209        0.0321832          9.91656          129.676       NO       
       NOTCH-BOTTOM-1.210        0.0121591          11.5168          150.425       NO       
       NOTCH-BOTTOM-1.211         0.138538          8.72239          143.899       NO       
       NOTCH-BOTTOM-1.212        0.0463684          8.18393           156.67       NO       
       NOTCH-BOTTOM-1.213        0.0120151          9.20125          147.147       NO       
       NOTCH-BOTTOM-1.214        0.0325575          8.80723          126.907       NO       
       NOTCH-BOTTOM-1.215        0.0112934          9.36501          141.646       NO       
       NOTCH-BOTTOM-1.216       0.00561196          12.6114          156.908       NO       
       NOTCH-BOTTOM-1.217         0.051892          8.76551          143.984       NO       
       NOTCH-BOTTOM-1.218        0.0487809          7.63215          144.946       NO       
       NOTCH-BOTTOM-1.219         0.102131          9.46352           155.05       NO       
       NOTCH-BOTTOM-1.220         0.143136          7.47846          139.416       NO       
       NOTCH-BOTTOM-1.221          0.02766          9.67401          160.228       NO       
       NOTCH-BOTTOM-1.222      0.000902197          3.86817          168.263       NO       
       NOTCH-BOTTOM-1.223        0.0821403          8.82979          142.979       NO       
       NOTCH-BOTTOM-1.225        0.0202382          9.65465          102.608       NO       
       NOTCH-BOTTOM-1.227        0.0522685          7.53866          143.891       NO       
       NOTCH-BOTTOM-1.229         0.119182          7.26742          140.387       NO       
       NOTCH-BOTTOM-1.231        0.0173956          8.82563          147.841       NO       
       NOTCH-BOTTOM-1.232        0.0115009          7.86983           143.92       NO       
       NOTCH-BOTTOM-1.233         0.114757          7.37928          108.488       NO       
       NOTCH-BOTTOM-1.234        0.0218252          8.28917          157.128       NO       
       NOTCH-BOTTOM-1.235       0.00960437          8.62002          151.682       NO       
       NOTCH-BOTTOM-1.236         0.136906          6.25978          127.234       NO       
       NOTCH-BOTTOM-1.237        0.0642642           6.1002          116.553       NO       
       NOTCH-BOTTOM-1.238       0.00641443          13.4277          153.614       NO       
       NOTCH-BOTTOM-1.239        0.0374842          9.74043          158.878       NO       
       NOTCH-BOTTOM-1.240        0.0408206          8.13435          152.831       NO       
       NOTCH-BOTTOM-1.241         0.122356          8.00586          115.667       NO       
       NOTCH-BOTTOM-1.242         0.153116          8.30804          140.863       NO       
       NOTCH-BOTTOM-1.243       0.00221251          5.44642          167.618       NO       
       NOTCH-BOTTOM-1.244         0.103953          8.25364          110.287       NO       
       NOTCH-BOTTOM-1.245        0.0090365          10.0322          159.297       NO       
       NOTCH-BOTTOM-1.246        0.0388966          8.57601          140.994       NO       
       NOTCH-BOTTOM-1.247        0.0783612          7.34527          117.775       NO       
       NOTCH-BOTTOM-1.248       0.00531087          10.2309          154.063       NO       
       NOTCH-BOTTOM-1.249          0.17476          8.13711           109.97       NO       
       NOTCH-BOTTOM-1.250         0.076199          7.12987          121.989       NO       
       NOTCH-BOTTOM-1.251         0.118895          6.63882          111.811       NO       
       NOTCH-BOTTOM-1.252        0.0351919          9.72712           158.05       NO       
       NOTCH-BOTTOM-1.253        0.0749195          6.64341          145.047       NO       
       NOTCH-BOTTOM-1.254         0.143027          6.71652          115.861       NO       
       NOTCH-BOTTOM-1.255        0.0205476          7.35481          133.794       NO       
       NOTCH-BOTTOM-1.256        0.0712233          6.95175          112.648       NO       
       NOTCH-BOTTOM-1.257           0.1226          6.84619          123.416       NO       
       NOTCH-BOTTOM-1.258         0.168751          7.28767          130.169       NO       
       NOTCH-BOTTOM-1.259        0.0202055          9.72099          103.288       NO       
       NOTCH-BOTTOM-1.260        0.0285667          8.22261          134.678       NO       
       NOTCH-BOTTOM-1.261      0.000457667          6.15902          165.484       NO       
       NOTCH-BOTTOM-1.262         0.132507            7.886          142.541       NO       
       NOTCH-BOTTOM-1.263        0.0638447          7.50222           133.35       NO       
       NOTCH-BOTTOM-1.264       0.00519869          8.33341           153.29       NO       
       NOTCH-BOTTOM-1.265         0.109346          7.39988          144.304       NO       
       NOTCH-BOTTOM-1.266        0.0761278          7.67924          145.957       NO       
       NOTCH-BOTTOM-1.267       0.00795987          8.41533          145.061       NO       
       NOTCH-BOTTOM-1.269        0.0616194          7.42596          133.735       NO       
       NOTCH-BOTTOM-1.270         0.113614          7.28393          140.996       NO       
       NOTCH-BOTTOM-1.271        0.0109759          11.9334          158.746       NO       
       NOTCH-BOTTOM-1.272         0.162564          7.26233          136.946       NO       
       NOTCH-BOTTOM-1.273        0.0273295           8.2007          139.931       NO       
       NOTCH-BOTTOM-1.279       0.00808924          10.0154          144.202       NO       
       NOTCH-BOTTOM-1.280        0.0768278          9.20488          154.714       NO       
       NOTCH-BOTTOM-1.281          0.14683          7.22558          137.879       NO       
       NOTCH-BOTTOM-1.282        0.0382615          8.34251          156.424       NO       
       NOTCH-BOTTOM-1.284       0.00413196          13.0486           150.43       NO       
       NOTCH-BOTTOM-1.285        0.0178707          8.63284          152.598       NO       
       NOTCH-BOTTOM-1.286        0.0135857           8.4897          157.098       NO       
       NOTCH-BOTTOM-1.287        0.0370859          7.91843          164.064       NO       
       NOTCH-BOTTOM-1.288       0.00797604          10.7386          156.264       NO       
       NOTCH-BOTTOM-1.289        0.0287249            9.441          146.255       NO       
       NOTCH-BOTTOM-1.290       0.00853193          7.49264          166.456       NO       
       NOTCH-BOTTOM-1.291         0.017715          3.95227           138.33       NO       
       NOTCH-BOTTOM-1.292      0.000439289          6.47174          160.818       NO       
       NOTCH-BOTTOM-1.293        0.0404357          9.97673          156.183       NO       
       NOTCH-BOTTOM-1.294        0.0197738          8.72092          148.406       NO       
       NOTCH-BOTTOM-1.296        0.0476254          7.71771          138.255       NO       
       NOTCH-BOTTOM-1.297      0.000178045          5.15571          170.303       NO       
       NOTCH-BOTTOM-1.298       0.00567986          6.19531          166.436       NO       
       NOTCH-BOTTOM-1.300        0.0341994          7.88574          144.925       NO       
       NOTCH-BOTTOM-1.301         0.040977           7.9051          142.153       NO       
       NOTCH-BOTTOM-1.302        0.0174896          9.39256          158.897       NO       
       NOTCH-BOTTOM-1.303        0.0843803          9.99747          143.761       NO       
       NOTCH-BOTTOM-1.304        0.0423803          8.24452          136.221       NO       
       NOTCH-BOTTOM-1.305        0.0703916          8.44238           144.55       NO       
       NOTCH-BOTTOM-1.306         0.145704          6.93756          123.845       NO       
       NOTCH-BOTTOM-1.307        0.0407935          7.28995          134.216       NO       
       NOTCH-BOTTOM-1.308         0.153998          6.84171          123.524       NO       
       NOTCH-BOTTOM-1.309        0.0751513          7.09246          117.726       NO       
       NOTCH-BOTTOM-1.310         0.151562          8.68078          153.802       NO       
       NOTCH-BOTTOM-1.311        0.0935974          7.79892          121.477       NO       
       NOTCH-BOTTOM-1.312        0.0210589          3.18563          172.892       NO       
       NOTCH-BOTTOM-1.313        0.0837747          6.49101          167.045       NO       
       NOTCH-BOTTOM-1.314       0.00660316          13.7319          149.726       NO       
       NOTCH-BOTTOM-1.315      0.000117082          5.59567          172.011       NO       
       NOTCH-BOTTOM-1.316        0.0611792          8.82238           157.92       NO       
       NOTCH-BOTTOM-1.318         0.021066          8.39955          162.411       NO       
       NOTCH-BOTTOM-1.319       0.00794819          15.1018           151.93       NO       
       NOTCH-BOTTOM-1.320       0.00992188           7.4387          161.974       NO       
       NOTCH-BOTTOM-1.321        0.0131492          9.00781           158.56       NO       
       NOTCH-BOTTOM-1.322        0.0893692          7.80807          161.417       NO       
       NOTCH-BOTTOM-1.323        0.0136306           12.479          138.881       NO       
       NOTCH-BOTTOM-1.324       0.00414629          8.43794          157.271       NO       
       NOTCH-BOTTOM-1.325        0.0212798          9.86431          148.754       NO       
       NOTCH-BOTTOM-1.326        0.0800251          9.35932          151.874       NO       
       NOTCH-BOTTOM-1.327        0.0638238           7.4995          133.308       NO       
       NOTCH-BOTTOM-1.328        0.0787046          7.14308          127.208       NO       
       NOTCH-BOTTOM-1.329         0.152629          6.81561          116.607       NO       
       NOTCH-BOTTOM-1.330        0.0155353          11.3907           159.78       NO       
       NOTCH-BOTTOM-1.331         0.160104          7.23213          136.151       NO       
       NOTCH-BOTTOM-1.332         0.154189          7.39031          136.707       NO       
       NOTCH-BOTTOM-1.333         0.011755          8.21451          157.797       NO       
       NOTCH-BOTTOM-1.334      0.000395843          4.88372          172.181       NO       
       NOTCH-BOTTOM-1.335        0.0031855          4.93856          170.975       NO       
       NOTCH-BOTTOM-1.336        0.0126939          8.99873          160.376       NO       
       NOTCH-BOTTOM-1.337        0.0192429          3.18563          172.815       NO       
       NOTCH-BOTTOM-1.338        0.0246303          7.71986          157.248       NO       
       NOTCH-BOTTOM-1.339        0.0279516           8.6399          155.731       NO       
       NOTCH-BOTTOM-1.340      0.000438153           6.2932          160.379       NO       
       NOTCH-BOTTOM-1.341       0.00718751          16.7229          152.457       NO       
       NOTCH-BOTTOM-1.342        0.0475937          7.73251          138.282       NO       
       NOTCH-BOTTOM-1.343         0.157973          7.34429           142.25       NO       
       NOTCH-BOTTOM-1.344        0.0596532          7.72026          145.859       NO       
       NOTCH-BOTTOM-1.345         0.157779          7.34794          142.223       NO       
       NOTCH-BOTTOM-1.346        0.0616956          7.37826          133.643       NO       
       NOTCH-BOTTOM-1.347        0.0990998          6.82831          119.286       NO       
       NOTCH-BOTTOM-1.348        0.0442939          8.59453          157.674       NO       
       NOTCH-BOTTOM-1.349        0.0590385          7.67188          144.886       NO       
       NOTCH-BOTTOM-1.350         0.110932          7.02238           127.09       NO       
       NOTCH-BOTTOM-1.351         0.107647          6.73461          127.199       NO       
       NOTCH-BOTTOM-1.352         0.086974          7.60267          145.477       NO       
       NOTCH-BOTTOM-1.353        0.0112932          8.97556          162.246       NO       
       NOTCH-BOTTOM-1.354        0.0300032          7.46704          142.644       NO       
       NOTCH-BOTTOM-1.355        0.0314869          7.77364          144.527       NO       
       NOTCH-BOTTOM-1.356         0.106778          7.99485          113.356       NO       
       NOTCH-BOTTOM-1.357        0.0564679          7.20437          145.568       NO       
       NOTCH-BOTTOM-1.358          0.12865          6.97792          103.472       NO       
       NOTCH-BOTTOM-1.359         0.138312          7.08425            98.96       NO       
       NOTCH-BOTTOM-1.360          0.13667          6.73755           95.527       NO       
       NOTCH-BOTTOM-1.361        0.0786581          7.05267          127.061       NO       
       NOTCH-BOTTOM-1.362         0.119892          6.00804           129.26       NO       
       NOTCH-BOTTOM-1.363         0.120563          7.42336          110.959       NO       
       NOTCH-BOTTOM-1.364       0.00449891          6.17043          167.335       NO       
       NOTCH-BOTTOM-1.365        0.0167017          7.58286          148.633       NO       
       NOTCH-BOTTOM-1.366        0.0196314           12.294          148.913       NO       
       NOTCH-BOTTOM-1.367        0.0811271           7.2917          127.041       NO       
       NOTCH-BOTTOM-1.368       0.00498781          11.5995            150.6       NO       
       NOTCH-BOTTOM-1.369        0.0969682          7.75653          124.571       NO       
       NOTCH-BOTTOM-1.370         0.102038          6.47155          109.703       NO       
       NOTCH-BOTTOM-1.371         0.060664          7.04134          140.177       NO       
       NOTCH-BOTTOM-1.372        0.0263493          7.94056          151.365       NO       
       NOTCH-BOTTOM-1.373         0.162246           7.7461          160.196       NO       
       NOTCH-BOTTOM-1.374        0.0132812          11.6114           152.77       NO       
       NOTCH-BOTTOM-1.375        0.0295166          8.05746           139.34       NO       
       NOTCH-BOTTOM-1.376        0.0353088          9.89393           159.59       NO       
       NOTCH-BOTTOM-1.377        0.0343528          7.40573          138.401       NO       
       NOTCH-BOTTOM-1.378         0.135419          6.63619          114.284       NO       
       NOTCH-BOTTOM-1.379        0.0277628          7.07778          128.837       NO       
       NOTCH-BOTTOM-1.380        0.0998068          5.87202          102.991       NO       
       NOTCH-BOTTOM-1.381         0.124504          6.78863          110.528       NO       
       NOTCH-BOTTOM-1.382       0.00810175          12.2699          152.966       NO       
       NOTCH-BOTTOM-1.383        0.0264292          9.10804          157.798       NO       
       NOTCH-BOTTOM-1.384       0.00391301          12.8258          154.651       NO       
       NOTCH-BOTTOM-1.385        0.0552941          7.71655          140.356       NO       
       NOTCH-BOTTOM-1.386        0.0346864          10.2479          160.389       NO       
       NOTCH-BOTTOM-1.387        0.0107281          3.18563          172.485       NO       
       NOTCH-BOTTOM-1.388        0.0175914          6.50334          167.654       NO       
       NOTCH-BOTTOM-1.389       0.00411548          6.19928           167.37       NO       
       NOTCH-BOTTOM-1.390       0.00476118          6.27164          136.877       NO       
       NOTCH-BOTTOM-1.391        0.0191636          6.41797          167.673       NO       
       NOTCH-BOTTOM-1.392        0.0100218          9.40601           145.32       NO       
       NOTCH-BOTTOM-1.393        0.0113848          9.32904          144.037       NO       
       NOTCH-BOTTOM-1.394         0.038928          8.46226          157.333       NO       
       NOTCH-BOTTOM-1.395        0.0466986          8.74918          156.159       NO       
       NOTCH-BOTTOM-1.396        0.0115564          9.45483          143.339       NO       
       NOTCH-BOTTOM-1.397        0.0541297          8.69053          157.813       NO       
       NOTCH-BOTTOM-1.399         0.152008          8.16327          159.511       NO       
       NOTCH-BOTTOM-1.400       0.00553342          8.17512          161.004       NO       
       NOTCH-BOTTOM-1.402        0.0700373           8.2182          145.429       NO       
       NOTCH-BOTTOM-1.403        0.0533653          7.46965          141.297       NO       
       NOTCH-BOTTOM-1.404        0.0293344           9.6158          146.229       NO       
       NOTCH-BOTTOM-1.405       0.00387112          13.5213          151.075       NO       
       NOTCH-BOTTOM-1.406        0.0111936          6.53356          115.743       NO       
       NOTCH-BOTTOM-1.407        0.0515538          7.20223          140.896       NO       
       NOTCH-BOTTOM-1.408        0.0275635          7.97878          127.472       NO       
       NOTCH-BOTTOM-1.409       0.00656215          10.5317           158.47       NO       
       NOTCH-BOTTOM-1.410       0.00363266           14.114           151.78       NO       
       NOTCH-BOTTOM-1.411       0.00283139           10.601          155.868       NO       
       NOTCH-BOTTOM-1.412        0.0443916          9.21925          159.252       NO       
       NOTCH-BOTTOM-1.413      0.000235524          7.33222          166.776       NO       
       NOTCH-BOTTOM-1.414        0.0811127          7.28464          127.049       NO       
       NOTCH-BOTTOM-1.415        0.0728553          6.92046           156.35       NO       
       NOTCH-BOTTOM-1.416       0.00802408          7.90783          158.406       NO       
       NOTCH-BOTTOM-1.417         0.120029          8.15319          96.0479       NO       
       NOTCH-BOTTOM-1.418         0.107833          6.69242          112.445       NO       
       NOTCH-BOTTOM-1.419        0.0196593          4.95484          146.312       NO       
       NOTCH-BOTTOM-1.420       0.00473231          6.43313           165.53       NO       
       NOTCH-BOTTOM-1.421         0.118929           6.3642          146.856       NO       
       NOTCH-BOTTOM-1.422        0.0293344           9.6158          146.229       NO       
       NOTCH-BOTTOM-1.424       0.00695697          11.8643          152.094       NO       
       NOTCH-BOTTOM-1.425        0.0949469          9.12975          136.662       NO       
       NOTCH-BOTTOM-1.426        0.0225657          10.5487          162.702       NO       
       NOTCH-BOTTOM-1.427        0.0973858          8.29203          139.606       NO       
       NOTCH-BOTTOM-1.429        0.0602056          8.62097          154.521       NO       
       NOTCH-BOTTOM-1.431        0.0670912          9.27462          153.114       NO       
       NOTCH-BOTTOM-1.432      0.000236795           7.2427          166.825       NO       
       NOTCH-BOTTOM-1.433       0.00680464          6.70033          167.066       NO       
       NOTCH-BOTTOM-1.435          0.22173          9.97384          145.415       NO       
       NOTCH-BOTTOM-1.437        0.0307019          8.11697          134.274       NO       
       NOTCH-BOTTOM-1.438        0.0402852          7.39404          157.766       NO       
       NOTCH-BOTTOM-1.439        0.0125907          9.22003          164.179       NO       
       NOTCH-BOTTOM-1.440        0.0812869          9.37965          152.774       NO       
       NOTCH-BOTTOM-1.441        0.0812101          7.49596          111.302       NO       
       NOTCH-BOTTOM-1.442         0.115312          7.38488          123.942       NO       
       NOTCH-BOTTOM-1.443       0.00490779          8.31099           160.65       NO       
       NOTCH-BOTTOM-1.444        0.0565066          8.48441          162.729       NO       
       NOTCH-BOTTOM-1.446        0.0089004          8.22016          145.934       NO       
       NOTCH-BOTTOM-1.447       0.00356809          9.11235          149.393       NO       
       NOTCH-BOTTOM-1.448       0.00432877          9.80512          160.584       NO       
       NOTCH-BOTTOM-1.449        0.0245639          8.07045          149.932       NO       
       NOTCH-BOTTOM-1.450         0.117519          7.56629          163.683       NO       
       NOTCH-BOTTOM-1.451      0.000444188          3.18563          172.256       NO       
       NOTCH-BOTTOM-1.452      0.000404211          3.87798          164.382       NO       
       NOTCH-BOTTOM-1.453       0.00427968          6.11094          145.445       NO       
       NOTCH-BOTTOM-1.454       0.00588831          12.6143           152.87       NO       
       NOTCH-BOTTOM-1.455         0.034375          7.36445          138.247       NO       
       NOTCH-BOTTOM-1.456         0.141754          6.41631          96.4913       NO       
       NOTCH-BOTTOM-1.457        0.0456664          8.28052          157.543       NO       
       NOTCH-BOTTOM-1.458      0.000236297          7.33046          166.779       NO       
       NOTCH-BOTTOM-1.459         0.121014          8.98071          144.361       NO       
       NOTCH-BOTTOM-1.460         0.161519          7.46859          137.594       NO       
       NOTCH-BOTTOM-1.461        0.0158522           14.595          147.014       NO       
       NOTCH-BOTTOM-1.462      0.000438019          6.47448          160.389       NO       
       NOTCH-BOTTOM-1.463       0.00043853          6.42076          160.581       NO       
       NOTCH-BOTTOM-1.464       0.00682341          7.86103          159.422       NO       
       NOTCH-BOTTOM-1.466         0.118089          6.45192          101.811       NO       
       NOTCH-BOTTOM-1.467        0.0993166          5.56075          100.995       NO       
       NOTCH-BOTTOM-1.468        0.0553465          6.27105          109.482       NO       
       NOTCH-BOTTOM-1.469      0.000111581          5.45986          172.106       NO       
       NOTCH-BOTTOM-1.470         0.151232          8.73124          98.5093       NO       
       NOTCH-BOTTOM-1.471      0.000142971          5.68253          171.742       NO       
       NOTCH-BOTTOM-1.472        0.0559696          8.34898          98.0517       NO       
       NOTCH-BOTTOM-1.473       0.00688672          3.18483          172.697       NO       
       NOTCH-BOTTOM-1.474       0.00051435          4.10097          172.606       NO       
       NOTCH-BOTTOM-1.475         0.024275           7.5665             136.       NO       
       NOTCH-BOTTOM-1.476      0.000511305          4.14372          172.552       NO       
       NOTCH-BOTTOM-1.477       0.00699772           7.8936           166.83       NO       
       NOTCH-BOTTOM-1.478      0.000407705          5.83503          168.711       NO       
       NOTCH-BOTTOM-1.479       0.00618631          6.40071          167.023       NO       
       NOTCH-BOTTOM-1.480       0.00679818          3.18483          172.712       NO       
       NOTCH-BOTTOM-1.481      0.000570966          6.30682          162.989       NO       
       NOTCH-BOTTOM-1.482        0.0260058          7.54297          138.186       NO       
       NOTCH-BOTTOM-1.483       0.00466353          3.18483          173.036       NO       
       NOTCH-BOTTOM-1.484        0.0303448          7.46331          138.324       NO       
       NOTCH-BOTTOM-1.485        0.0010749          5.02825          170.321       NO       
       NOTCH-BOTTOM-1.486         0.029859          7.26084          125.221       NO       
       NOTCH-BOTTOM-1.488       0.00245577          6.96834          166.935       NO       
       NOTCH-BOTTOM-1.489      0.000349505           3.9826          170.316       NO       
       NOTCH-BOTTOM-1.490        0.0020212          3.18483          174.337       NO       
       NOTCH-BOTTOM-1.491        0.0111586          4.36251          150.214       NO       
       NOTCH-BOTTOM-1.492        0.0175137           3.9513          137.507       NO       
       NOTCH-BOTTOM-1.493        0.0122622          2.80946          175.637       NO       
       NOTCH-BOTTOM-1.494          0.13232          9.52905          146.994       NO       
       NOTCH-BOTTOM-1.496         0.149785          8.39411          143.887       NO       
       NOTCH-BOTTOM-1.497        0.0719232          6.49867          159.825       NO       
       NOTCH-BOTTOM-1.498       0.00959648           7.8787          143.181       NO       
       NOTCH-BOTTOM-1.499        0.0377324          9.80059          141.299       NO       
       NOTCH-BOTTOM-1.500         0.125138          8.74563          116.158       NO       
       NOTCH-BOTTOM-1.501        0.0737844           6.7628          104.227       NO       
       NOTCH-BOTTOM-1.502         0.039705          7.95293          129.645       NO       
       NOTCH-BOTTOM-1.503        0.0731168          7.16147          134.345       NO       
       NOTCH-BOTTOM-1.504        0.0145105          18.2603          156.911       NO       
       NOTCH-BOTTOM-1.505         0.017146          8.29178          139.344       NO       
       NOTCH-BOTTOM-1.507        0.0707505          7.12643          141.065       NO       
       NOTCH-BOTTOM-1.508        0.0126307          7.26492           148.82       NO       
       NOTCH-BOTTOM-1.509        0.0158763          7.62497          135.921       NO       
       NOTCH-BOTTOM-1.510        0.0171118            7.158          162.794       NO       
       NOTCH-BOTTOM-1.511       0.00429994          17.4815          155.453       NO       
       NOTCH-BOTTOM-1.512         0.032734          10.7835          160.996       NO       
       NOTCH-BOTTOM-1.514        0.0167393          10.8315          148.972       NO       
       NOTCH-BOTTOM-1.515        0.0758772          7.68365          151.906       NO       
       NOTCH-BOTTOM-1.516        0.0434544          8.74579          112.266       NO       
       NOTCH-BOTTOM-1.517         0.106873          8.68603          133.559       NO       
       NOTCH-BOTTOM-1.518         0.100939          7.81976          155.416       NO       
       NOTCH-BOTTOM-1.519        0.0491216           7.5173            138.6       NO       
       NOTCH-BOTTOM-1.520         0.169806          7.38436          135.197       NO       
       NOTCH-BOTTOM-1.521        0.0927353          7.02587           136.73       NO       
       NOTCH-BOTTOM-1.522         0.116558          9.14053          127.666       NO       
       NOTCH-BOTTOM-1.523        0.0729737          7.93739          148.383       NO       
       NOTCH-BOTTOM-1.524        0.0122528          7.32191          157.363       NO       
       NOTCH-BOTTOM-1.525        0.0586349          7.32095          148.241       NO       
       NOTCH-BOTTOM-1.526        0.0939742          7.18008          151.464       NO       
       NOTCH-BOTTOM-1.527         0.161872          8.69173           153.08       NO       
       NOTCH-BOTTOM-1.528        0.0563305          7.37764          150.785       NO       
       NOTCH-BOTTOM-1.529           0.1022            8.514           150.07       NO       
       NOTCH-BOTTOM-1.530        0.0290313          8.57971           137.87       NO       
       NOTCH-BOTTOM-1.531        0.0134401          8.21341          152.132       NO       
       NOTCH-BOTTOM-1.532        0.0074917          6.36254          166.626       NO       
       NOTCH-BOTTOM-1.533        0.0200804          7.21617          153.815       NO       
       NOTCH-BOTTOM-1.534        0.0847767           7.6923          138.524       NO       
       NOTCH-BOTTOM-1.535         0.182784          8.40329          149.098       NO       
       NOTCH-BOTTOM-1.536         0.109712          6.64567          147.032       NO       
       NOTCH-BOTTOM-1.537         0.175716          7.64797          134.882       NO       
       NOTCH-BOTTOM-1.540         0.091653          6.38906          108.004       NO       
       NOTCH-BOTTOM-1.541        0.0541243          9.59691          154.386       NO       
       NOTCH-BOTTOM-1.542       0.00708945          14.0998          161.177       NO       
       NOTCH-BOTTOM-1.543        0.0347616          7.44559          144.805       NO       
       NOTCH-BOTTOM-1.544         0.177354          9.61132          153.398       NO       
       NOTCH-BOTTOM-1.545        0.0778402          9.00848          140.722       NO       
       NOTCH-BOTTOM-1.546         0.124191          6.88208          131.524       NO       
       NOTCH-BOTTOM-1.548       0.00734053          8.41637          153.632       NO       
       NOTCH-BOTTOM-1.549       0.00414175          8.56601          151.968       NO       
       NOTCH-BOTTOM-1.551        0.0433265          9.43734           138.95       NO       
       NOTCH-BOTTOM-1.552        0.0760105          9.50425          141.475       NO       
       NOTCH-BOTTOM-1.553       0.00840223          8.78021          166.476       NO       
       NOTCH-BOTTOM-1.554        0.0196554          16.7747          159.634       NO       
       NOTCH-BOTTOM-1.555         0.143674          8.59309          142.415       NO       
       NOTCH-BOTTOM-1.556        0.0298577          8.40567          136.461       NO       
       NOTCH-BOTTOM-1.557          0.11345           7.0471          141.025       NO       
       NOTCH-BOTTOM-1.558        0.0239253          9.40532          130.636       NO       
       NOTCH-BOTTOM-1.559         0.156159          8.80297          142.735       NO       
       NOTCH-BOTTOM-1.560      0.000570803           6.3995          163.138       NO       
       NOTCH-BOTTOM-1.561        0.0615494          8.17779          147.979       NO       
       NOTCH-BOTTOM-1.562        0.0465321          7.69635          148.421       NO       
       NOTCH-BOTTOM-1.565         0.121331          7.29955          141.288       NO       
       NOTCH-BOTTOM-1.566        0.0715953          7.57027          144.628       NO       
       NOTCH-BOTTOM-1.567        0.0766804           7.7299          157.208       NO       
       NOTCH-BOTTOM-1.568        0.0374515          7.59135          154.164       NO       
       NOTCH-BOTTOM-1.569         0.107731          7.85838          142.698       NO       
       NOTCH-BOTTOM-1.570        0.0175735          7.84375           141.37       NO       
       NOTCH-BOTTOM-1.571        0.0305197           7.7054          150.257       NO       
       NOTCH-BOTTOM-1.572        0.0309992          8.82197          138.759       NO       
       NOTCH-BOTTOM-1.573         0.075459          6.74554          152.191       NO       
       NOTCH-BOTTOM-1.575        0.0571127          8.82007          157.368       NO       
       NOTCH-BOTTOM-1.576         0.151443           7.3207          139.045       NO       
       NOTCH-BOTTOM-1.577        0.0759419          6.50567          148.075       NO       
       NOTCH-BOTTOM-1.578        0.0388432          7.67138          144.336       NO       
       NOTCH-BOTTOM-1.579      0.000530914          3.93874          172.559       NO       
       NOTCH-BOTTOM-1.580         0.116589          6.27784          108.599       NO       
       NOTCH-BOTTOM-1.581      0.000652419          5.36335          164.099       NO       
       NOTCH-BOTTOM-1.582      0.000514495          4.10201          172.525       NO       
       NOTCH-BOTTOM-1.583         0.136512          8.40901          142.559       NO       
       NOTCH-BOTTOM-1.584         0.046277          8.20779          145.549       NO       
       NOTCH-BOTTOM-1.585        0.0315205          7.83332          137.173       NO       
       NOTCH-BOTTOM-1.586        0.0278504          7.93854          140.951       NO       
       NOTCH-BOTTOM-1.587         0.142634          8.51917          118.845       NO       
       NOTCH-BOTTOM-1.588        0.0644143          8.14092          145.708       NO       
       NOTCH-BOTTOM-1.589        0.0111629          12.5049          144.461       NO       
       NOTCH-BOTTOM-1.590           0.1855          8.62422          139.914       NO       
       NOTCH-BOTTOM-1.591       0.00186881          7.15799          165.176       NO       
       NOTCH-BOTTOM-1.592        0.0275832          11.4931          162.546       NO       
       NOTCH-BOTTOM-1.593         0.019436          5.11891          146.298       NO       
       NOTCH-BOTTOM-1.594         0.151293          9.36035          143.997       NO       
       NOTCH-BOTTOM-1.595        0.0808288          5.62396          167.489       NO       
       NOTCH-BOTTOM-1.596       0.00806259          13.4603          147.709       NO       
       NOTCH-BOTTOM-1.597        0.0170479          5.85967          151.137       NO       
       NOTCH-BOTTOM-1.599         0.103336           6.9523          128.311       NO       
       NOTCH-BOTTOM-1.600        0.0573649          8.15979          143.631       NO       
       NOTCH-BOTTOM-1.601        0.0629251          7.19863          133.614       NO       
       NOTCH-BOTTOM-1.602         0.147567          6.88024          124.979       NO       
       NOTCH-BOTTOM-1.603         0.155347          7.23288          145.043       NO       
       NOTCH-BOTTOM-1.604       0.00104623          6.01625          167.541       NO       
       NOTCH-BOTTOM-1.605         0.143747          6.93642           126.68       NO       
       NOTCH-BOTTOM-1.606         0.164106          7.21678           130.34       NO       
       NOTCH-BOTTOM-1.607       0.00676281          6.40311          167.023       NO       
       NOTCH-BOTTOM-1.608         0.154162          7.06703          131.053       NO       
       NOTCH-BOTTOM-1.609        0.0615939          7.32992          133.337       NO       
       NOTCH-BOTTOM-1.610        0.0272043          8.26666          150.378       NO       
       NOTCH-BOTTOM-1.611         0.168536          7.34893          129.964       NO       
       NOTCH-BOTTOM-1.612        0.0482549          7.58627          138.216       NO       
       NOTCH-BOTTOM-1.613          0.04054          8.88886          145.464       NO       
       NOTCH-BOTTOM-1.614       0.00735139           6.5464          166.652       NO       
       NOTCH-BOTTOM-1.615        0.0896812          8.65457          135.373       NO       
       NOTCH-BOTTOM-1.616        0.0436477          7.84589          145.868       NO       
       NOTCH-BOTTOM-1.617        0.0320613          7.83232          137.379       NO       
       NOTCH-BOTTOM-1.618       0.00897231          9.77183          151.143       NO       
       NOTCH-BOTTOM-1.619        0.0391521          7.66184           132.12       NO       
       NOTCH-BOTTOM-1.620         0.156337          6.82745          130.706       NO       
       NOTCH-BOTTOM-1.621        0.0276201          7.34632          133.584       NO       
       NOTCH-BOTTOM-1.624         0.148926           7.3054          149.922       NO       
       NOTCH-BOTTOM-1.625        0.0281625          11.6787           162.65       NO       
       NOTCH-BOTTOM-1.626        0.0062669          6.39163          167.023       NO       
       NOTCH-BOTTOM-1.627        0.0306611          9.16566          142.617       NO       
       NOTCH-BOTTOM-1.628         0.135822           7.2012          99.1314       NO       
       NOTCH-BOTTOM-1.629         0.126362           6.6379          118.862       NO       
       NOTCH-BOTTOM-1.630        0.0825501          6.74831           108.75       NO       
       NOTCH-BOTTOM-1.631         0.131572          6.46464          106.373       NO       
       NOTCH-BOTTOM-1.632       0.00273178          8.03437          164.054       NO       
       NOTCH-BOTTOM-1.633         0.118748           6.2432           122.84       NO       
       NOTCH-BOTTOM-1.634        0.0994594          6.89455          119.396       NO       
       NOTCH-BOTTOM-1.635         0.157033          6.90667          116.281       NO       
       NOTCH-BOTTOM-1.636        0.0735096          7.18044          119.726       NO       
       NOTCH-BOTTOM-1.637         0.129153          6.01445          127.966       NO       
       NOTCH-BOTTOM-1.638        0.0786904          7.06991           127.04       NO       
       NOTCH-BOTTOM-1.639         0.103404           7.0181          129.868       NO       
       NOTCH-BOTTOM-1.640         0.158503          7.07866          107.173       NO       
       NOTCH-BOTTOM-1.641        0.0707572          6.25563          115.075       NO       
       NOTCH-BOTTOM-1.642         0.123262          6.02883          119.452       NO       
       NOTCH-BOTTOM-1.643         0.120452          7.50772          111.023       NO       
       NOTCH-BOTTOM-1.644        0.0796251          7.45644          147.824       NO       
       NOTCH-BOTTOM-1.645         0.136296          5.94679          122.669       NO       
       NOTCH-BOTTOM-1.646         0.137748          6.57112          117.953       NO       
       NOTCH-BOTTOM-1.647        0.0810775          7.21783          127.098       NO       
       NOTCH-BOTTOM-1.648        0.0811454          7.29633          127.008       NO       
       NOTCH-BOTTOM-1.649         0.160709           7.0346          123.944       NO       
       NOTCH-BOTTOM-1.650         0.184216          9.91657           143.26       NO       
       NOTCH-BOTTOM-1.651         0.163127          8.71399          140.542       NO       
       NOTCH-BOTTOM-1.652        0.0602384          8.09481           146.67       NO       
       NOTCH-BOTTOM-1.653        0.0417857          7.83919          144.083       NO       
       NOTCH-BOTTOM-1.654       0.00538899           7.6286          167.135       NO       
       NOTCH-BOTTOM-1.655      0.000571241          6.38257          163.146       NO       
       NOTCH-BOTTOM-1.656         0.150991          8.33141          122.212       NO       
       NOTCH-BOTTOM-1.657         0.127906          9.25492          134.495       NO       
       NOTCH-BOTTOM-1.658         0.153856          8.70138          142.211       NO       
       NOTCH-BOTTOM-1.660          0.19252           8.5774          139.543       NO       
       NOTCH-BOTTOM-1.662         0.141593          8.33199          138.934       NO       
       NOTCH-BOTTOM-1.663        0.0566432          9.04816          141.874       NO       
       NOTCH-BOTTOM-1.664        0.0460164          8.46127          131.347       NO       
       NOTCH-BOTTOM-1.665        0.0455723          8.51838          143.388       NO       
       NOTCH-BOTTOM-1.666         0.120116          8.90398          138.752       NO       
       NOTCH-BOTTOM-1.667       0.00393948          5.44858          170.231       NO       
       NOTCH-BOTTOM-1.668        0.0725529          5.44084          155.944       NO       
       NOTCH-BOTTOM-1.669        0.0790553           7.9296          135.464       NO       
       NOTCH-BOTTOM-1.670       0.00375316          13.2432          151.842       NO       
       NOTCH-BOTTOM-1.671         0.134629          7.23198          140.599       NO       
       NOTCH-BOTTOM-1.672        0.0223697          8.33564          137.862       NO       
       NOTCH-BOTTOM-1.673         0.144648          8.39074          141.389       NO       
       NOTCH-BOTTOM-1.675        0.0984193          7.74678           151.48       NO       
       NOTCH-BOTTOM-1.676        0.0492068          7.82871          145.269       NO       
       NOTCH-BOTTOM-1.677         0.037379          7.98777          134.986       NO       
       NOTCH-BOTTOM-1.678        0.0416597          9.11186          153.262       NO       
       NOTCH-BOTTOM-1.679        0.0548017          7.30212           111.81       NO       
       NOTCH-BOTTOM-1.680        0.0593708          7.24485          133.368       NO       
       NOTCH-BOTTOM-1.681        0.0125887          21.7642          141.221       NO       
       NOTCH-BOTTOM-1.682          0.15392          8.86955          147.882       NO       
       NOTCH-BOTTOM-1.683        0.0117527          10.6563          141.763       NO       
       NOTCH-BOTTOM-1.684        0.0987298          8.60678          139.606       NO       
       NOTCH-BOTTOM-1.685         0.114349          6.36719          127.393       NO       
       NOTCH-BOTTOM-1.686         0.166513          7.28065           134.35       NO       
       NOTCH-BOTTOM-1.687         0.093701          7.81998          139.819       NO       
       NOTCH-BOTTOM-1.688        0.0688335          7.23141          134.419       NO       
       NOTCH-BOTTOM-1.689         0.161912          7.12273          123.922       NO       
       NOTCH-BOTTOM-1.690         0.058059          7.40835           131.97       NO       
       NOTCH-BOTTOM-1.691         0.014585          9.16761          144.745       NO       
       NOTCH-BOTTOM-1.692        0.0753264          5.99679          132.901       NO       
       NOTCH-BOTTOM-1.693        0.0130779          8.65956          161.988       NO       
       NOTCH-BOTTOM-1.694        0.0681458           5.7654          127.007       NO       
       NOTCH-BOTTOM-1.695          0.10446          8.24638          143.749       NO       
       NOTCH-BOTTOM-1.696        0.0525252          8.36783          146.353       NO       
       NOTCH-BOTTOM-1.697      0.000796527          7.39665          165.902       NO       
       NOTCH-BOTTOM-1.698         0.115346          8.34646          143.723       NO       
       NOTCH-BOTTOM-1.699      0.000388253          7.28797           166.83       NO       
       NOTCH-BOTTOM-1.700        0.0186371          9.75002          154.467       NO       
       NOTCH-BOTTOM-1.701        0.0246932           7.5637          133.991       NO       
       NOTCH-BOTTOM-1.702        0.0288344          8.20452          132.616       NO       
       NOTCH-BOTTOM-1.703         0.112099          8.63525          143.054       NO       
       NOTCH-BOTTOM-1.704      0.000387658          7.29612          166.827       NO       
       NOTCH-BOTTOM-1.705        0.0247253          8.54198          144.061       NO       
       NOTCH-BOTTOM-1.706        0.0508719          7.82459          147.702       NO       
       NOTCH-BOTTOM-1.707       0.00583896          5.54403          170.142       NO       
       NOTCH-BOTTOM-1.708       0.00302145          13.0038          154.593       NO       
       NOTCH-BOTTOM-1.709        0.0159215          12.9355           152.62       NO       
       NOTCH-BOTTOM-1.710       0.00995325          9.36504          153.482       NO       
       NOTCH-BOTTOM-1.711        0.0819085          6.70106          116.515       NO       
       NOTCH-BOTTOM-1.713         0.123633          7.01193           130.67       NO       
       NOTCH-BOTTOM-1.714        0.0535043          7.01662          119.074       NO       
       NOTCH-BOTTOM-1.715         0.150155          6.79757          116.708       NO       
       NOTCH-BOTTOM-1.716         0.121446          9.09378          135.525       NO       
       NOTCH-BOTTOM-1.717        0.0338094           7.3993          131.751       NO       
       NOTCH-BOTTOM-1.718        0.0576579          7.52616          119.443       NO       
       NOTCH-BOTTOM-1.719         0.145708          7.25321          107.344       NO       
       NOTCH-BOTTOM-1.720        0.0317033           7.0217           135.62       NO       
       NOTCH-BOTTOM-1.721        0.0944477          6.58641          122.368       NO       
       NOTCH-BOTTOM-1.722        0.0983823           6.6922          118.918       NO       
       NOTCH-BOTTOM-1.723         0.131221          6.69487          133.965       NO       
       NOTCH-BOTTOM-1.724        0.0991317          6.68739          130.665       NO       
       NOTCH-BOTTOM-1.725        0.0306892          7.71752          133.906       NO       
       NOTCH-BOTTOM-1.726       0.00120562          4.65989          170.249       NO       
       NOTCH-BOTTOM-1.727        0.0618011           7.3565           133.75       NO       
       NOTCH-BOTTOM-1.728         0.122774          7.43541          141.525       NO       
       NOTCH-BOTTOM-1.729        0.0296229          8.05299          136.333       NO       
       NOTCH-BOTTOM-1.730         0.125532          7.63447          139.474       NO       
       NOTCH-BOTTOM-1.731        0.0337839          8.69783           139.84       NO       
       NOTCH-BOTTOM-1.732         0.044633          7.86697          120.653       NO       
       NOTCH-BOTTOM-1.733        0.0450086          7.83188          122.993       NO       
       NOTCH-BOTTOM-1.734        0.0443233          7.97009           138.51       NO       
       NOTCH-BOTTOM-1.735         0.150549           8.4587          139.529       NO       
       NOTCH-BOTTOM-1.736         0.177171          8.54336          134.899       NO       
       NOTCH-BOTTOM-1.737         0.133807          7.51008          142.392       NO       
       NOTCH-BOTTOM-1.738        0.0388453          8.39264          137.419       NO       
       NOTCH-BOTTOM-1.739        0.0432133          7.83885          136.158       NO       
       NOTCH-BOTTOM-1.740        0.0287037          7.79662           133.83       NO       
       NOTCH-BOTTOM-1.741         0.117752          8.28539          144.612       NO       
       NOTCH-BOTTOM-1.742        0.0511308          8.18852          158.462       NO       
       NOTCH-BOTTOM-1.743       0.00938963          6.47488          150.013       NO       
       NOTCH-BOTTOM-1.745        0.0168788          9.29128          117.469       NO       
       NOTCH-BOTTOM-1.746        0.0273161          7.50721          158.368       NO       
       NOTCH-BOTTOM-1.747        0.0305445          6.81213          124.478       NO       
       NOTCH-BOTTOM-1.748        0.0260718          6.30933          158.628       NO       
       NOTCH-BOTTOM-1.750       0.00126403          8.76442          129.959       NO       
       NOTCH-BOTTOM-1.751       0.00587692           5.9913          165.364       NO       
[...]
         NOTCH-TOP-1.1738         0.114517          7.40656           108.56       NO       
         NOTCH-TOP-1.1739          0.11842          8.26417          96.1556       NO       
         NOTCH-TOP-1.1740       0.00397452          13.9916          152.031       NO       
         NOTCH-TOP-1.1741         0.122967          6.29858          116.807       NO       
         NOTCH-TOP-1.1742      0.000142343          4.31933          171.818       NO       
         NOTCH-TOP-1.1743         0.117016          5.74035          98.4803       NO       
         NOTCH-TOP-1.1744       0.00604505          5.97708          166.232       NO       
         NOTCH-TOP-1.1745      0.000304965          3.18563          174.961       NO       
         NOTCH-TOP-1.1746       0.00109715          3.71874           168.93       NO       
         NOTCH-TOP-1.1747        0.0144664          9.66651           158.78       NO       
         NOTCH-TOP-1.1748         0.012536          3.18563          145.297       NO       
         NOTCH-TOP-1.1750       0.00130526          5.28272          167.538       NO       
         NOTCH-TOP-1.1751      0.000441383          6.68014           163.05       NO       
         NOTCH-TOP-1.1752       0.00255224          5.02285           170.74       NO       
         NOTCH-TOP-1.1753       0.00121634          6.88967          167.072       NO       
         NOTCH-TOP-1.1754      0.000215498          7.36489          166.651       NO       
         NOTCH-TOP-1.1755      0.000213311          7.11408          166.792       NO       
         NOTCH-TOP-1.1756      0.000443303          6.45423          161.771       NO       
         NOTCH-TOP-1.1757      0.000394937          4.75936          172.114       NO       
         NOTCH-TOP-1.1758       0.00794548          3.18563          173.358       NO       
         NOTCH-TOP-1.1759       0.00029884          3.78341          163.795       NO       
         NOTCH-TOP-1.1760        0.0285231          10.4579          160.146       NO       
         NOTCH-TOP-1.1762         0.142341          10.5803          160.947       NO       
         NOTCH-TOP-1.1763        0.0645496          6.17344          136.903       NO       
         NOTCH-TOP-1.1765        0.0228913           7.6748          135.813       NO       
         NOTCH-TOP-1.1766         0.121027          6.95935          148.129       NO       
         NOTCH-TOP-1.1767        0.0100658           8.3548          144.523       NO       
         NOTCH-TOP-1.1768       0.00842802          18.7577           148.98       NO       
         NOTCH-TOP-1.1769        0.0924537          6.04654          145.429       NO       
         NOTCH-TOP-1.1770        0.0384124          6.44341           154.28       NO       
         NOTCH-TOP-1.1771        0.0778296          8.83592          142.691       NO       
         NOTCH-TOP-1.1772        0.0588254          6.71068          146.866       NO       
         NOTCH-TOP-1.1773       0.00693754          11.9114          148.468       NO       
         NOTCH-TOP-1.1774         0.138052          6.92195          103.776       NO       
         NOTCH-TOP-1.1775          0.13122          6.85118          108.853       NO       
         NOTCH-TOP-1.1776        0.0961723          8.29532          144.457       NO       
         NOTCH-TOP-1.1777       0.00348049          12.6038           151.83       NO       
         NOTCH-TOP-1.1780         0.154324          6.82711          130.301       NO       
         NOTCH-TOP-1.1781         0.104124           7.1928          106.164       NO       
         NOTCH-TOP-1.1782         0.135107          7.10825          115.321       NO       
         NOTCH-TOP-1.1784      0.000475414          5.24428          165.429       NO       
         NOTCH-TOP-1.1785      0.000327842          6.29578           167.62       NO       
         NOTCH-TOP-1.1786       0.00400214          7.37123           167.62       NO       
         NOTCH-TOP-1.1787        0.0252912          8.63011          154.529       NO       
         NOTCH-TOP-1.1789        0.0283379          7.90907          127.785       NO       
         NOTCH-TOP-1.1790          0.15827          7.27494          142.485       NO       
         NOTCH-TOP-1.1791        0.0985414           8.2613          118.466       NO       
         NOTCH-TOP-1.1792         0.161564           7.0724          124.079       NO       
         NOTCH-TOP-1.1793        0.0051805           8.2092          151.804       NO       
         NOTCH-TOP-1.1794        0.0681544          7.39614          145.028       NO       
         NOTCH-TOP-1.1795        0.0293344           9.6158          146.229       NO       
         NOTCH-TOP-1.1796      0.000479801          5.92287           166.54       NO       
         NOTCH-TOP-1.1797        0.0164624          8.93829          144.399       NO       
         NOTCH-TOP-1.1798        0.0191962          4.95736          158.215       NO       
         NOTCH-TOP-1.1799      0.000444121          6.87593          161.273       NO       
         NOTCH-TOP-1.1801       0.00781578          5.73642            167.7       NO       
         NOTCH-TOP-1.1802        0.0569352          7.04371          130.861       NO       
         NOTCH-TOP-1.1803         0.133562          7.30316          104.501       NO       
         NOTCH-TOP-1.1804         0.130884          6.44331          114.026       NO       
         NOTCH-TOP-1.1805         0.147321          6.66159          113.499       NO       
         NOTCH-TOP-1.1806        0.0946619          7.05042          116.825       NO       
         NOTCH-TOP-1.1807         0.123736          7.27663          106.887       NO       
         NOTCH-TOP-1.1808        0.0334658          7.89887          158.021       NO       
         NOTCH-TOP-1.1809       0.00754872          10.8515          148.892       NO       
         NOTCH-TOP-1.1810        0.0214737          3.18563          172.988       NO       
         NOTCH-TOP-1.1811         0.101951          6.63982          116.242       NO       
         NOTCH-TOP-1.1812         0.126932          5.98323          101.672       NO       
         NOTCH-TOP-1.1813         0.130015          5.93975            104.5       NO       
         NOTCH-TOP-1.1814         0.117634          6.30785          108.641       NO       
         NOTCH-TOP-1.1815         0.148874          8.24867          99.2808       NO       
         NOTCH-TOP-1.1816         0.117177          5.88109          118.072       NO       
         NOTCH-TOP-1.1817        0.0960065          6.44028          104.978       NO       
         NOTCH-TOP-1.1819         0.158274          6.92831          124.075       NO       
         NOTCH-TOP-1.1820        0.0113352          6.89237          142.244       NO       
         NOTCH-TOP-1.1821         0.135661          7.01209          102.299       NO       
         NOTCH-TOP-1.1822         0.157672           7.3241          142.361       NO       
         NOTCH-TOP-1.1823        0.0984935          6.75324          109.054       NO       
         NOTCH-TOP-1.1824        0.0196593          4.95484          146.312       NO       
         NOTCH-TOP-1.1825        0.0934159          6.83862          116.371       NO       
         NOTCH-TOP-1.1826      0.000400957          5.12156           171.97       NO       
         NOTCH-TOP-1.1827       0.00150458          6.09224          167.717       NO       
         NOTCH-TOP-1.1828       0.00165338          3.18563          173.704       NO       
         NOTCH-TOP-1.1829        0.0076646          15.1784           152.48       NO       
         NOTCH-TOP-1.1831       0.00647343          6.13862          129.849       NO       
         NOTCH-TOP-1.1832        0.0287249            9.441          146.255       NO       
         NOTCH-TOP-1.1833        0.0114078          4.23758          150.207       NO       
         NOTCH-TOP-1.1834         0.034555          7.40379          138.522       NO       
         NOTCH-TOP-1.1835        0.0477515          7.75573          138.437       NO       
         NOTCH-TOP-1.1836       0.00374242          14.3531          151.586       NO       
         NOTCH-TOP-1.1837      0.000367254          4.45292          171.133       NO       
         NOTCH-TOP-1.1838         0.017715          3.95227           138.33       NO       
         NOTCH-TOP-1.1841         0.152714          7.73161          160.774       NO       
         NOTCH-TOP-1.1842        0.0134021          9.11544          154.716       NO       
         NOTCH-TOP-1.1843        0.0162364          7.55885          151.277       NO       
         NOTCH-TOP-1.1844        0.0480809          7.74162          146.218       NO       
         NOTCH-TOP-1.1845         0.123269          7.24809          148.394       NO       
         NOTCH-TOP-1.1846        0.0077074          7.62421          161.123       NO       
         NOTCH-TOP-1.1847        0.0457875          8.61862          157.666       NO       
         NOTCH-TOP-1.1849         0.014145          11.8667          141.587       NO       
         NOTCH-TOP-1.1850        0.0632049          8.82127          135.026       NO       
         NOTCH-TOP-1.1851        0.0992943          7.59052          161.154       NO       
         NOTCH-TOP-1.1853       0.00490437          16.2646          154.902       NO       
         NOTCH-TOP-1.1854         0.117714          8.31181          146.752       NO       
         NOTCH-TOP-1.1855        0.0360418          8.78089          129.444       NO       
         NOTCH-TOP-1.1856        0.0724859          10.5812          160.753       NO       
         NOTCH-TOP-1.1857       0.00791526          10.5481          148.658       NO       
         NOTCH-TOP-1.1858      0.000395574          4.84993          172.095       NO       
         NOTCH-TOP-1.1860        0.0457233          8.68981          160.094       NO       
         NOTCH-TOP-1.1861       0.00748115          6.75743          166.974       NO       
         NOTCH-TOP-1.1862        0.0170329          8.90096          144.437       NO       
         NOTCH-TOP-1.1865       0.00394138          11.3976          150.414       NO       
         NOTCH-TOP-1.1866        0.0451455          8.95152          158.283       NO       
         NOTCH-TOP-1.1868         0.167207          7.24777          130.298       NO       
         NOTCH-TOP-1.1869       0.00658437          13.5368          152.546       NO       
         NOTCH-TOP-1.1870        0.0108115          8.43126          166.792       NO       
         NOTCH-TOP-1.1871       0.00650347          14.2854          154.246       NO       
         NOTCH-TOP-1.1872       0.00682995           6.5587          166.958       NO       
         NOTCH-TOP-1.1873       0.00835537          11.3453          154.786       NO       
         NOTCH-TOP-1.1874        0.0162109            12.97          158.074       NO       
         NOTCH-TOP-1.1875      0.000111291          5.45242          172.111       NO       
         NOTCH-TOP-1.1876       0.00983629          15.6053          155.007       NO       
         NOTCH-TOP-1.1877        0.0529296           6.7702          142.832       NO       
         NOTCH-TOP-1.1878        0.0638665          7.42732          133.141       NO       
         NOTCH-TOP-1.1879       0.00039946          5.05719          171.912       NO       
         NOTCH-TOP-1.1880        0.0418407          8.18255          155.714       NO       
         NOTCH-TOP-1.1881         0.079302          6.68737          120.649       NO       
         NOTCH-TOP-1.1883        0.0209001          9.27222          160.078       NO       
         NOTCH-TOP-1.1884      0.000444963           6.6484             162.       NO       
         NOTCH-TOP-1.1885        0.0135989          8.95175          147.976       NO       
         NOTCH-TOP-1.1886        0.0786883          7.06625          127.031       NO       
         NOTCH-TOP-1.1887        0.0616853           7.4005          133.726       NO       
         NOTCH-TOP-1.1888        0.0331121          3.18563          173.047       NO       
         NOTCH-TOP-1.1889        0.0241935          8.53293          134.243       NO       
         NOTCH-TOP-1.1890         0.163517          7.33155          138.099       NO       
         NOTCH-TOP-1.1891        0.0205228          7.31284          134.273       NO       
         NOTCH-TOP-1.1892          0.15227          7.59499          139.374       NO       
         NOTCH-TOP-1.1893        0.0194077          8.62962          161.789       NO       
         NOTCH-TOP-1.1894         0.124888          7.15015          140.018       NO       
         NOTCH-TOP-1.1895        0.0722188          8.25048          160.569       NO       
         NOTCH-TOP-1.1897        0.0204844          6.37171          127.313       NO       
         NOTCH-TOP-1.1898         0.153169          9.13406          150.916       NO       
         NOTCH-TOP-1.1899        0.0166088          10.5126          159.001       NO       
         NOTCH-TOP-1.1900        0.0138911          9.68256          161.509       NO       
         NOTCH-TOP-1.1901         0.030132          6.63374           167.62       NO       
         NOTCH-TOP-1.1902        0.0145157          8.83727           154.96       NO       
         NOTCH-TOP-1.1903       0.00732598          13.0504          156.745       NO       
         NOTCH-TOP-1.1905        0.0154438          11.3814          159.924       NO       
  
  
  *Step, name=Step-1, nlgeom=NO, inc=10000
  *output, field
  *output, field, variable=PRESELECT
  *output, history, frequency=0
  *Step, name=Step-1, nlgeom=NO, inc=10000
  *Step, name=Step-1, nlgeom=NO, inc=10000
  *static
  *boundary, amplitude=AMP-1
  *boundary
  *output, field
  *nodeoutput, nset=ASSEMBLY_BOTTOM-224MM
  *nodeoutput, nset=ASSEMBLY_BOTTOM-4MM
  *nodeoutput, nset=ASSEMBLY_BOTTOM-50MM
  *nodeoutput, nset=ASSEMBLY_SECTION
  *nodeoutput, nset=ASSEMBLY_TOP-224MM
  *nodeoutput, nset=ASSEMBLY_TOP-4MM
  *nodeoutput, nset=ASSEMBLY_TOP-50MM
  *output, field, variable=PRESELECT
  *output, history, frequency=0
  *endstep
  *Step, name=Step-1, nlgeom=NO, inc=10000
  *static
  *boundary, amplitude=AMP-1
  *boundary
  *endstep

 ***NOTE: Boundary conditions are specified on inactive dof of 834 nodes. The 
          nodes have been identified in node set WarnNodeBCInactiveDof.



                            P R O B L E M   S I Z E


          NUMBER OF ELEMENTS IS                                 24061
          NUMBER OF NODES IS                                    31891
          NUMBER OF NODES DEFINED BY THE USER                   31891
          TOTAL NUMBER OF VARIABLES IN THE MODEL                95673
          (DEGREES OF FREEDOM PLUS MAX NO. OF ANY LAGRANGE MULTIPLIER
           VARIABLES. INCLUDE *PRINT,SOLVE=YES TO GET THE ACTUAL NUMBER.)



                              END OF USER INPUT PROCESSING



     JOB TIME SUMMARY
       USER TIME (SEC)      =      1.1    
       SYSTEM TIME (SEC)    =     0.20    
       TOTAL CPU TIME (SEC) =      1.3    
       WALLCLOCK TIME (SEC) =            2
1

   Abaqus 2023                                  Date 01-Dec-2023   Time 12:05:47
   For use by Supplied by Team-SolidSQUAD under license from Dassault Systemes or its subsidiary.

                                                                                               STEP    1  INCREMENT    1
                                                                                          TIME COMPLETED IN THIS STEP   0.00    


                        S T E P       1     S T A T I C   A N A L Y S I S


                                                                                          

     AUTOMATIC TIME CONTROL WITH -
          A SUGGESTED INITIAL TIME INCREMENT OF                0.100    
          AND A TOTAL TIME PERIOD OF                           1.500E+03
          THE MINIMUM TIME INCREMENT ALLOWED IS                1.000E-04
          THE MAXIMUM TIME INCREMENT ALLOWED IS                 1.00    

     LINEAR EQUATION SOLVER TYPE         DIRECT SPARSE

          UNSYMMETRIC MATRIX STORAGE AND SOLUTION WILL BE USED
  
                   M E M O R Y   E S T I M A T E
  
 PROCESS      FLOATING PT       MINIMUM MEMORY        MEMORY TO
              OPERATIONS           REQUIRED          MINIMIZE I/O
             PER ITERATION           (MB)               (MB)
  
     1          1.68E+11              153               1653
  
 NOTE:
      (1) SINCE ABAQUS DOES NOT PRE-ALLOCATE MEMORY AND ONLY ALLOCATES MEMORY AS NEEDED DURING THE ANALYSIS,
          THE MEMORY REQUIREMENT PRINTED HERE CAN ONLY BE VIEWED AS A GENERAL GUIDELINE BASED ON THE BEST
          KNOWLEDGE AVAILABLE AT THE BEGINNING OF A STEP BEFORE THE SOLUTION PROCESS HAS BEGUN.
      (2) THE ESTIMATE IS NORMALLY UPDATED AT THE BEGINNING OF EVERY STEP. IT IS THE MAXIMUM VALUE OF THE
          ESTIMATE FROM THE CURRENT STEP TO THE LAST STEP OF THE ANALYSIS, WITH UNSYMMETRIC SOLUTION TAKEN
          INTO ACCOUNT IF APPLICABLE. 
      (3) SINCE THE ESTIMATE IS BASED ON THE ACTIVE DEGREES OF FREEDOM IN THE FIRST ITERATION OF THE 
          CURRENT STEP, THE MEMORY ESTIMATE MIGHT BE SIGNIFICANTLY DIFFERENT THAN ACTUAL USAGE FOR 
          PROBLEMS WITH SUBSTANTIAL CHANGES IN ACTIVE DEGREES OF FREEDOM BETWEEN STEPS (OR EVEN WITHIN
          THE SAME STEP). EXAMPLES ARE: PROBLEMS WITH SIGNIFICANT CONTACT CHANGES, PROBLEMS WITH MODEL
          CHANGE, PROBLEMS WITH BOTH STATIC STEP AND STEADY STATE DYNAMIC PROCEDURES WHERE ACOUSTIC 
          ELEMENTS WILL ONLY BE ACTIVATED IN THE STEADY STATE DYNAMIC STEPS.
      (4) FOR MULTI-PROCESS EXECUTION, THE ESTIMATED VALUE OF FLOATING POINT OPERATIONS FOR EACH PROCESS
          IS BASED ON AN INITIAL SCHEDULING OF OPERATIONS AND MIGHT NOT REFLECT THE ACTUAL FLOATING 
          POINT OPERATIONS COMPLETED ON EACH PROCESS. OPERATIONS ARE DYNAMICALLY BALANCED DURING EXECUTION, 
          SO THE ACTUAL BALANCE OF OPERATIONS BETWEEN PROCESSES IS EXPECTED TO BE BETTER THAN THE ESTIMATE
          PRINTED HERE.
      (5) THE UPPER LIMIT OF MEMORY THAT CAN BE ALLOCATED BY ABAQUS WILL IN GENERAL DEPEND ON THE VALUE OF
          THE "MEMORY" PARAMETER AND THE AMOUNT OF PHYSICAL MEMORY AVAILABLE ON THE MACHINE. PLEASE SEE
          THE "ABAQUS ANALYSIS USER'S MANUAL" FOR MORE DETAILS. THE ACTUAL USAGE OF MEMORY AND OF DISK
          SPACE FOR SCRATCH DATA WILL DEPEND ON THIS UPPER LIMIT AS WELL AS THE MEMORY REQUIRED TO MINIMIZE
          I/O. IF THE MEMORY UPPER LIMIT IS GREATER THAN THE MEMORY REQUIRED TO MINIMIZE I/O, THEN THE ACTUAL
          MEMORY USAGE WILL BE CLOSE TO THE ESTIMATED "MEMORY TO MINIMIZE I/O" VALUE, AND THE SCRATCH DISK
          USAGE WILL BE CLOSE-TO-ZERO; OTHERWISE, THE ACTUAL MEMORY USED WILL BE CLOSE TO THE PREVIOUSLY
          MENTIONED MEMORY LIMIT, AND THE SCRATCH DISK USAGE WILL BE ROUGHLY PROPORTIONAL TO THE DIFFERENCE
          BETWEEN THE ESTIMATED "MEMORY TO MINIMIZE I/O" AND THE MEMORY UPPER LIMIT. HOWEVER ACCURATE
          ESTIMATE OF THE SCRATCH DISK SPACE IS NOT POSSIBLE.
      (6) USING "*RESTART, WRITE" CAN GENERATE A LARGE AMOUNT OF DATA WRITTEN IN THE WORK DIRECTORY.


          THE ANALYSIS HAS BEEN COMPLETED



                              ANALYSIS COMPLETE
                              WITH     10 WARNING MESSAGES ON THE DAT FILE
                              AND      29 WARNING MESSAGES ON THE MSG FILE
                                       24 WARNINGS ARE FOR NEGATIVE EIGENVALUES



     JOB TIME SUMMARY
       USER TIME (SEC)      =     1.00E+04
       SYSTEM TIME (SEC)    =     1.93E+02
       TOTAL CPU TIME (SEC) =     1.02E+04
       WALLCLOCK TIME (SEC) =        14150
