*Heading
** Job name: hinged#3gentle Model name: hinged 3 gentle material
** Generated by: Abaqus/CAE 2023
*Preprint, echo=NO, model=NO, history=NO, contact=NO
**
** PARTS
**
*Part, name=bottom
*Node
      1,          50.,          50.,           0.
      2,           0.,          50.,           0.
      3,           0.,          50.,         -50.
      4,           0.,          73.,         -50.
      5,           0.,          73.,           0.
      6,          50.,          73.,           0.
      7,           0.,          50.,          50.
      8,           0.,          73.,          50.
      9,         -50.,          50.,           0.
     10,         -50.,          73.,           0.
     11,           0.,           0.,           0.
     12,           0.,           0.,         -50.
     13,          50.,           0.,           0.
     14,           0.,           0.,          50.
     15,         -50.,           0.,           0.
     16,   44.9213867,          50.,           0.
     17,   40.0002594,          50.,           0.
     18,   35.0618896,          50.,           0.
     19,   30.1100445,          50.,           0.
     20,   25.1309433,          50.,           0.
** ... 6652 like lines cut
*Element, type=C3D8R
  1,  377,  385,   42,   41, 2573, 2581,  533,  534
  2,  385,  386,   43,   42, 2581, 2582,  532,  533
  3,  386,  387,   44,   43, 2582, 2583,  531,  532
  4,  387,  388,   45,   44, 2583, 2584,  530,  531
  5,  388,  389,   46,   45, 2584, 2585,  529,  530
  6,  389,  390,   47,   46, 2585, 2586,  528,  529
  7,  390,  391,   48,   47, 2586, 2587,  527,  528
  8,  391,   16,    1,   48, 2587,  595,   56,  527
  9,  369,  376,  385,  377, 2565, 2572, 2581, 2573
 10,  376,  375,  386,  385, 2572, 2571, 2582, 2581
 11,  375,  374,  387,  386, 2571, 2570, 2583, 2582
 12,  374,  373,  388,  387, 2570, 2569, 2584, 2583
 13,  373,  372,  389,  388, 2569, 2568, 2585, 2584
 14,  372,  371,  390,  389, 2568, 2567, 2586, 2585
 15,  371,  370,  391,  390, 2567, 2566, 2587, 2586
 16,  370,   17,   16,  391, 2566,  594,  595, 2587
 17,  370,  392,   18,   17, 2566, 2588,  593,  594
 18,  392,  393,   19,   18, 2588, 2589,  592,  593
 19,  393,  394,   20,   19, 2589, 2590,  591,  592
 20,  394,  395,   21,   20, 2590, 2591,  590,  591
** ... 5740 like lines cut
*Nset, nset=_PickedSet15, internal, generate
    1,  6672,     1
*Elset, elset=_PickedSet15, internal, generate
    1,  5760,     1
** Section: specimen
*Solid Section, elset=_PickedSet15, material=gentle#3
,
*End Part
**  
*Part, name=bottom-plate
*Node
      1,           0.,           0.,          50.
      2,           0.,           0.,           0.
      3,         -50.,           0.,           0.
      4,           0.,         -55.,           0.
      5,           0.,         -55.,          50.
      6,         -50.,         -55.,           0.
      7,          50.,           0.,           0.
      8,          50.,         -55.,           0.
      9,           0.,           0.,         -50.
     10,           0.,         -55.,         -50.
     11,           0.,           0.,   44.9213905
     12,           0.,           0.,    40.000267
     13,           0.,           0.,   35.0619125
     14,           0.,           0.,   30.1100845
     15,           0.,           0.,    25.130991
     16,           0.,           0.,   20.1258621
     17,           0.,           0.,   15.1060019
     18,           0.,           0.,   10.0756779
     19,           0.,           0.,   5.03862953
     20,  -5.03854561,           0.,           0.
** ... 4984 like lines cut
*Element, type=C3D8R
   1,  261,  269,   37,   36, 1853, 1861,  417,  418
   2,  269,  270,   38,   37, 1861, 1862,  416,  417
   3,  270,  271,   39,   38, 1862, 1863,  415,  416
   4,  271,  272,   40,   39, 1863, 1864,  414,  415
   5,  272,  273,   41,   40, 1864, 1865,  413,  414
   6,  273,  274,   42,   41, 1865, 1866,  412,  413
   7,  274,  275,   43,   42, 1866, 1867,  411,  412
   8,  275,   11,    1,   43, 1867,  569,   53,  411
   9,  253,  260,  269,  261, 1845, 1852, 1861, 1853
  10,  260,  259,  270,  269, 1852, 1851, 1862, 1861
  11,  259,  258,  271,  270, 1851, 1850, 1863, 1862
  12,  258,  257,  272,  271, 1850, 1849, 1864, 1863
  13,  257,  256,  273,  272, 1849, 1848, 1865, 1864
  14,  256,  255,  274,  273, 1848, 1847, 1866, 1865
  15,  255,  254,  275,  274, 1847, 1846, 1867, 1866
  16,  254,   12,   11,  275, 1846,  568,  569, 1867
  17,  254,  276,   13,   12, 1846, 1868,  567,  568
  18,  276,  277,   14,   13, 1868, 1869,  566,  567
  19,  277,  278,   15,   14, 1869, 1870,  565,  566
  20,  278,  279,   16,   15, 1870, 1871,  564,  565
** ... 4204 like lines cut
*Nset, nset=_PickedSet2, internal, generate
    1,  5004,     1
*Elset, elset=_PickedSet2, internal, generate
    1,  4224,     1
** Section: plate
*Solid Section, elset=_PickedSet2, material=steel
,
*End Part
**  
*Part, name=bottom-rigid
*Node
      1,          50.,         -55.,           0.
      2,          50.,         -60.,           0.
      3,           0.,         -60.,           0.
      4,           0.,         -55.,           0.
      5,   49.7485504,         -60.,   5.00815248
      6,   48.9848633,         -60.,   10.0241241
      7,   47.7149124,         -60.,   14.9427986
      8,    45.979969,         -60.,   19.6428719
      9,   43.8829193,         -60.,   23.9643383
     10,   41.5228996,         -60.,    27.854063
     11,   39.0109253,         -60.,   31.2753544
     12,   36.4546509,         -60.,   34.2207336
     13,   33.5456314,         -60.,   37.0768204
     14,   30.2642841,         -60.,    39.800415
     15,   26.5115032,         -60.,   42.3926888
     16,   22.2627735,         -60.,   44.7701797
     17,    17.763052,         -60.,   46.7383575
     18,   12.8084211,         -60.,   48.3316078
     19,   7.93965101,         -60.,    49.365593
     20,   2.87371898,         -60.,   49.9173508
** ... 842 like lines cut
*Element, type=R3D4
 1,  42, 105, 106,  43
 2,  43, 106, 107,  44
 3,  44, 107, 108,  45
 4,  45, 108, 109,  46
 5,  46, 109, 110,  47
 6,  47, 110, 111,  48
 7,  48, 111, 112,  49
 8,  49, 112, 113,  50
 9,  50, 113, 114,  51
10,  51, 114, 115,  52
11,  52, 115, 116,  53
12,  53, 116, 117,  54
13,  54, 117, 118,  55
14,  55, 118, 119,  56
15,  56, 119, 120,  57
16,  57, 120, 121,  58
17,  58, 121, 122,  59
18,  59, 122, 123,  60
19,  60, 123, 124,  61
20,  61, 124, 125,  62
** ... 840 like lines cut
*Node
    863,           0.,         -60.,           0.
*Nset, nset=bottom-rigid-RefPt_, internal
863, 
*Nset, nset=_PickedSet11, internal
 863,
*Elset, elset=_Surf-1_SPOS, internal, generate
 462,  860,    1
*Surface, type=ELEMENT, name=Surf-1
_Surf-1_SPOS, SPOS
*Elset, elset=bottom-rigid, generate
   1,  860,    1
*Element, type=MASS, elset=_PickedSet11_Inertia-1_
861, 863
*Mass, elset=_PickedSet11_Inertia-1_
1., 
*End Part
**  
*Part, name=notch-bottom
*Node
      1,           0.,         73.5,           0.
      2,           0.,         73.5,          41.
      3,          41.,         73.5,           0.
      4,           0.,          73.,           0.
      5,          50.,          73.,           0.
      6,           0.,          73.,          50.
      7,         -50.,          73.,           0.
      8,         -41.,         73.5,           0.
      9,           0.,          73.,         -50.
     10,           0.,         73.5,         -41.
     11,           0.,         73.5,        5.125
     12,           0.,         73.5,        10.25
     13,           0.,         73.5,       15.375
     14,           0.,         73.5,         20.5
     15,           0.,         73.5,       25.625
     16,           0.,         73.5,        30.75
     17,           0.,         73.5,       35.875
     18,   4.94200373,         73.5,   40.7010651
     19,    9.8119421,         73.5,   39.8086128
     20,   14.5388002,         73.5,   38.3356667
** ... 3957 like lines cut
*Element, type=C3D10
  1,   55,   11,  184,  237,  693,  692,  691,  695,  694,  696
  2,   55,  184,  253,  237,  691,  698,  697,  695,  696,  699
  3,   36,  686,  237,   11,  702,  701,  700,  704,  703,  694
  4,   11,   55,  184,  253,  693,  691,  692,  705,  697,  698
  5,    1,   55,   46,  686,  708,  707,  706,  710,  709,  711
  6,   19,   20,  285,  262,  714,  713,  712,  716,  715,  717
  7,  686,   46,    1,   36,  711,  706,  710,  702,  718,  719
  8,  292,  241,   20,   21,  722,  721,  720,  724,  723,  725
  9,  292,  291,   20,  238,  727,  726,  720,  729,  728,  730
 10,  238,  241,   20,  292,  731,  721,  730,  729,  722,  720
 11,  299,  260,   27,   28,  734,  733,  732,  736,  735,  737
 12,   19,  239,  285,  291,  739,  738,  712,  741,  740,  742
 13,  291,  285,   20,  238,  742,  713,  726,  728,  743,  730
 14,  291,  290,   19,  239,  745,  744,  741,  740,  746,  739
 15,  292,  238,   65,   66,  729,  748,  747,  750,  749,  751
 16,  290,  248,   18,   19,  754,  753,  752,  744,  755,  756
 17,  290,    6,   68,   47,  759,  758,  757,  761,  760,  762
 18,  290,   18,  248,   47,  752,  753,  754,  761,  763,  764
 19,  290,   67,  248,  239,  766,  765,  754,  746,  767,  768
 20,   18,   47,   48,  248,  763,  770,  769,  753,  764,  771
** ... 1895 like lines cut
*Nset, nset=_PickedSet2, internal, generate
    1,  3977,     1
*Elset, elset=_PickedSet2, internal, generate
    1,  1915,     1
** Section: specimen
*Solid Section, elset=_PickedSet2, material=gentle#3
,
*End Part
**  
*Part, name=notch-middle
*Node
      1,           0.,         76.5,           0.
      2,           0.,         76.5,          41.
      3,          41.,         76.5,           0.
      4,           0.,         73.5,          41.
      5,           0.,         73.5,           0.
      6,          41.,         73.5,           0.
      7,         -41.,         76.5,           0.
      8,         -41.,         73.5,           0.
      9,           0.,         76.5,         -41.
     10,           0.,         73.5,         -41.
     11,           0.,         76.5,   4.60296822
     12,           0.,         76.5,   9.20321083
     13,           0.,         76.5,   13.7918568
     14,           0.,         76.5,   18.3614864
     15,           0.,         76.5,   22.8970776
     16,           0.,         76.5,   27.3961124
     17,           0.,         76.5,   31.8763504
     18,           0.,         76.5,   36.3398018
     19,   5.08657455,         76.5,   40.6832504
     20,   10.1101017,         76.5,   39.7339363
** ... 578 like lines cut
*Element, type=C3D8R
 1, 178, 180,  33,  32, 232, 234,  50,  51
 2, 180, 181,  34,  33, 234, 235,  49,  50
 3, 181, 182,  35,  34, 235, 236,  48,  49
 4, 182, 183,  36,  35, 236, 237,  47,  48
 5, 183, 184,  37,  36, 237, 238,  46,  47
 6, 184,  11,   1,  37, 238,  45,   5,  46
 7, 177, 185, 180, 178, 231, 239, 234, 232
 8, 185, 186, 181, 180, 239, 240, 235, 234
 9, 186, 187, 182, 181, 240, 241, 236, 235
10, 187, 188, 183, 182, 241, 242, 237, 236
11, 188, 189, 184, 183, 242, 243, 238, 237
12, 189,  12,  11, 184, 243,  44,  45, 238
13, 176, 190, 185, 177, 230, 244, 239, 231
14, 190, 191, 186, 185, 244, 245, 240, 239
15, 191, 192, 187, 186, 245, 246, 241, 240
16, 192, 193, 188, 187, 246, 247, 242, 241
17, 193, 194, 189, 188, 247, 248, 243, 242
18, 194,  13,  12, 189, 248,  43,  44, 243
19, 175, 195, 190, 176, 229, 249, 244, 230
20, 195, 196, 191, 190, 249, 250, 245, 244
** ... 252 like lines cut
*Nset, nset=_PickedSet2, internal, generate
   1,  598,    1
*Elset, elset=_PickedSet2, internal, generate
   1,  272,    1
** Section: specimen
*Solid Section, elset=_PickedSet2, material=gentle#3
,
*End Part
**  
*Part, name=notch-top
*Node
      1,           0.,          77.,         -50.
      2,           0.,          77.,           0.
      3,          50.,          77.,           0.
      4,           0.,         76.5,         -41.
      5,          41.,         76.5,           0.
      6,           0.,         76.5,           0.
      7,         -41.,         76.5,           0.
      8,         -50.,          77.,           0.
      9,           0.,         76.5,          41.
     10,           0.,          77.,          50.
     11,           0.,          77.,         -45.
     12,           0.,          77.,         -40.
     13,           0.,          77.,         -35.
     14,           0.,          77.,         -30.
     15,           0.,          77.,         -25.
     16,           0.,          77.,         -20.
     17,           0.,          77.,         -15.
     18,           0.,          77.,         -10.
     19,           0.,          77.,          -5.
     20,           5.,          77.,           0.
** ... 3944 like lines cut
*Element, type=C3D10
  1,  191,  686,  261,   20,  691,  690,  689,  693,  692,  694
  2,  286,   68,  202,  261,  697,  696,  695,  699,  698,  700
  3,  191,   20,  261,  202,  693,  694,  689,  702,  701,  700
  4,   55,  261,  686,   68,  704,  690,  703,  705,  698,  706
  5,    6,   19,   20,  686,  709,  708,  707,  711,  710,  692
  6,    2,    6,   19,   20,  713,  709,  712,  714,  707,  708
  7,  686,    6,   55,   68,  711,  715,  703,  706,  716,  705
  8,  293,  281,  296,  236,  719,  718,  717,  721,  720,  722
  9,  293,  281,  236,  282,  719,  720,  721,  724,  723,  725
 10,  281,  282,  260,  230,  723,  727,  726,  729,  728,  730
 11,  283,  269,  228,  226,  733,  732,  731,  735,  734,  736
 12,  225,  278,  224,  258,  739,  738,  737,  741,  740,  742
 13,  278,  269,  226,  224,  744,  734,  743,  738,  745,  746
 14,  278,  295,  297,  239,  749,  748,  747,  751,  750,  752
 15,   64,   25,  275,  187,  755,  754,  753,  757,  756,  758
 16,   64,  274,  187,  275,  760,  759,  757,  753,  761,  758
 17,   66,  273,  189,   23,  764,  763,  762,  766,  765,  767
 18,   66,  272,  189,  273,  769,  768,  762,  764,  770,  763
 19,   67,  272,  190,   22,  773,  772,  771,  775,  774,  776
 20,  267,  221,   48,  216,  779,  778,  777,  781,  780,  782
** ... 1886 like lines cut
*Nset, nset=_PickedSet2, internal, generate
    1,  3964,     1
*Elset, elset=_PickedSet2, internal, generate
    1,  1906,     1
** Section: specimen
*Solid Section, elset=_PickedSet2, material=gentle#3
,
*End Part
**  
*Part, name=top
*Node
      1,         -50.,         100.,           0.
      2,           0.,         100.,           0.
      3,           0.,         100.,         -50.
      4,           0.,          77.,         -50.
      5,           0.,          77.,           0.
      6,         -50.,          77.,           0.
      7,          50.,         100.,           0.
      8,           0.,         100.,          50.
      9,           0.,          77.,          50.
     10,          50.,          77.,           0.
     11,           0.,         150.,           0.
     12,           0.,         150.,         -50.
     13,         -50.,         150.,           0.
     14,           0.,         150.,          50.
     15,          50.,         150.,           0.
     16,  -44.9213867,         100.,           0.
     17,  -40.0002594,         100.,           0.
     18,  -35.0618896,         100.,           0.
     19,  -30.1100445,         100.,           0.
     20,  -25.1309433,         100.,           0.
** ... 6652 like lines cut
*Element, type=C3D8R
  1,  377,  385,   42,   41, 2573, 2581,  533,  534
  2,  385,  386,   43,   42, 2581, 2582,  532,  533
  3,  386,  387,   44,   43, 2582, 2583,  531,  532
  4,  387,  388,   45,   44, 2583, 2584,  530,  531
  5,  388,  389,   46,   45, 2584, 2585,  529,  530
  6,  389,  390,   47,   46, 2585, 2586,  528,  529
  7,  390,  391,   48,   47, 2586, 2587,  527,  528
  8,  391,   16,    1,   48, 2587,  587,   56,  527
  9,  369,  376,  385,  377, 2565, 2572, 2581, 2573
 10,  376,  375,  386,  385, 2572, 2571, 2582, 2581
 11,  375,  374,  387,  386, 2571, 2570, 2583, 2582
 12,  374,  373,  388,  387, 2570, 2569, 2584, 2583
 13,  373,  372,  389,  388, 2569, 2568, 2585, 2584
 14,  372,  371,  390,  389, 2568, 2567, 2586, 2585
 15,  371,  370,  391,  390, 2567, 2566, 2587, 2586
 16,  370,   17,   16,  391, 2566,  588,  587, 2587
 17,  370,  392,   18,   17, 2566, 2588,  589,  588
 18,  392,  393,   19,   18, 2588, 2589,  590,  589
 19,  393,  394,   20,   19, 2589, 2590,  591,  590
 20,  394,  395,   21,   20, 2590, 2591,  592,  591
** ... 5740 like lines cut
*Nset, nset=_PickedSet3, internal, generate
    1,  6672,     1
*Elset, elset=_PickedSet3, internal, generate
    1,  5760,     1
** Section: specimen
*Solid Section, elset=_PickedSet3, material=gentle#3
,
*End Part
**  
*Part, name=top-plate
*Node
      1,           0.,         205.,          50.
      2,           0.,         205.,           0.
      3,         -50.,         205.,           0.
      4,           0.,         150.,           0.
      5,           0.,         150.,          50.
      6,         -50.,         150.,           0.
      7,          50.,         205.,           0.
      8,          50.,         150.,           0.
      9,           0.,         205.,         -50.
     10,           0.,         150.,         -50.
     11,           0.,         205.,   44.9213905
     12,           0.,         205.,    40.000267
     13,           0.,         205.,   35.0619125
     14,           0.,         205.,   30.1100845
     15,           0.,         205.,    25.130991
     16,           0.,         205.,   20.1258621
     17,           0.,         205.,   15.1060019
     18,           0.,         205.,   10.0756779
     19,           0.,         205.,   5.03862953
     20,  -5.03854561,         205.,           0.
** ... 4984 like lines cut
*Element, type=C3D8R
   1,  261,  269,   37,   36, 1853, 1861,  417,  418
   2,  269,  270,   38,   37, 1861, 1862,  416,  417
   3,  270,  271,   39,   38, 1862, 1863,  415,  416
   4,  271,  272,   40,   39, 1863, 1864,  414,  415
   5,  272,  273,   41,   40, 1864, 1865,  413,  414
   6,  273,  274,   42,   41, 1865, 1866,  412,  413
   7,  274,  275,   43,   42, 1866, 1867,  411,  412
   8,  275,   11,    1,   43, 1867,  569,   53,  411
   9,  253,  260,  269,  261, 1845, 1852, 1861, 1853
  10,  260,  259,  270,  269, 1852, 1851, 1862, 1861
  11,  259,  258,  271,  270, 1851, 1850, 1863, 1862
  12,  258,  257,  272,  271, 1850, 1849, 1864, 1863
  13,  257,  256,  273,  272, 1849, 1848, 1865, 1864
  14,  256,  255,  274,  273, 1848, 1847, 1866, 1865
  15,  255,  254,  275,  274, 1847, 1846, 1867, 1866
  16,  254,   12,   11,  275, 1846,  568,  569, 1867
  17,  254,  276,   13,   12, 1846, 1868,  567,  568
  18,  276,  277,   14,   13, 1868, 1869,  566,  567
  19,  277,  278,   15,   14, 1869, 1870,  565,  566
  20,  278,  279,   16,   15, 1870, 1871,  564,  565
** ... 4204 like lines cut
*Nset, nset=_PickedSet2, internal, generate
    1,  5004,     1
*Elset, elset=_PickedSet2, internal, generate
    1,  4224,     1
** Section: plate
*Solid Section, elset=_PickedSet2, material=steel
,
*End Part
**  
*Part, name=top-rigid
*Node
      1,          50.,         210.,           0.
      2,          50.,         205.,           0.
      3,           0.,         205.,           0.
      4,           0.,         210.,           0.
      5,   49.7485504,         205.,   5.00815248
      6,   48.9848633,         205.,   10.0241241
      7,   47.7149124,         205.,   14.9427986
      8,    45.979969,         205.,   19.6428719
      9,   43.8829193,         205.,   23.9643383
     10,   41.5228996,         205.,    27.854063
     11,   39.0109253,         205.,   31.2753544
     12,   36.4546509,         205.,   34.2207336
     13,   33.5456314,         205.,   37.0768204
     14,   30.2642841,         205.,    39.800415
     15,   26.5115032,         205.,   42.3926888
     16,   22.2627735,         205.,   44.7701797
     17,    17.763052,         205.,   46.7383575
     18,   12.8084211,         205.,   48.3316078
     19,   7.93965101,         205.,    49.365593
     20,   2.87371898,         205.,   49.9173508
** ... 842 like lines cut
*Element, type=R3D4
 1,  42, 105, 106,  43
 2,  43, 106, 107,  44
 3,  44, 107, 108,  45
 4,  45, 108, 109,  46
 5,  46, 109, 110,  47
 6,  47, 110, 111,  48
 7,  48, 111, 112,  49
 8,  49, 112, 113,  50
 9,  50, 113, 114,  51
10,  51, 114, 115,  52
11,  52, 115, 116,  53
12,  53, 116, 117,  54
13,  54, 117, 118,  55
14,  55, 118, 119,  56
15,  56, 119, 120,  57
16,  57, 120, 121,  58
17,  58, 121, 122,  59
18,  59, 122, 123,  60
19,  60, 123, 124,  61
20,  61, 124, 125,  62
** ... 840 like lines cut
*Node
    863,           3.,         210.,           0.
*Nset, nset=top-rigid-RefPt_, internal
863, 
*Nset, nset=_PickedSet14, internal
 863,
*Elset, elset=_Surf-1_SPOS, internal, generate
  65,  461,    1
*Surface, type=ELEMENT, name=Surf-1
_Surf-1_SPOS, SPOS
*Elset, elset=top-rigid, generate
   1,  860,    1
*Element, type=MASS, elset=_PickedSet14_Inertia-1_
861, 863
*Mass, elset=_PickedSet14_Inertia-1_
1., 
*End Part
**  
**
** ASSEMBLY
**
*Assembly, name=Assembly
**  
*Instance, name=bottom-1, part=bottom
*End Instance
**  
*Instance, name=top-1, part=top
*End Instance
**  
*Instance, name=notch-bottom-1, part=notch-bottom
*End Instance
**  
*Instance, name=notch-middle-1, part=notch-middle
*End Instance
**  
*Instance, name=notch-top-1, part=notch-top
*End Instance
**  
*Instance, name=bottom-plate-1, part=bottom-plate
*End Instance
**  
*Instance, name=top-plate-1, part=top-plate
*End Instance
**  
*Instance, name=bottom-rigid-1, part=bottom-rigid
*End Instance
**  
*Instance, name=top-rigid-1, part=top-rigid
*End Instance
**  
*Nset, nset=bottom-4mm, instance=bottom-1
   6,   8,  10,  79,  80,  81,  82,  83,  84,  85,  86,  87,  88,  89,  90,  91
  92,  93, 131, 132, 133, 134, 135, 136, 137, 138, 139, 140, 141, 142, 143, 144
 145, 183, 184, 185, 186, 187, 188, 189, 190, 191, 192, 193, 194, 195, 196, 197
 354, 355, 356, 357, 358, 359, 360, 361, 362, 363, 364, 365, 366, 367, 368
*Nset, nset=bottom-4mm, instance=notch-bottom-1
 9,
*Nset, nset=bottom-50mm, instance=bottom-1
   1,   3,   7,   9,  34,  35,  36,  37,  38,  39,  40,  41,  42,  43,  44,  45
  46,  47,  48, 103, 104, 105, 106, 107, 108, 109, 110, 111, 112, 113, 114, 115
 116, 117, 146, 147, 148, 149, 150, 151, 152, 153, 154, 155, 156, 157, 158, 159
 160, 324, 325, 326, 327, 328, 329, 330, 331, 332, 333, 334, 335, 336, 337, 338
*Nset, nset=bottom-224mm, instance=bottom-1
   51,   54,  119,  171,  557,  558,  559,  560,  561,  562,  563,  564,  565,  566,  567,  568
  569,  570,  571,  847,  848,  849,  850,  851,  852,  853,  854,  855,  856,  857,  858,  859
  860,  861, 1101, 1102, 1103, 1104, 1105, 1106, 1107, 1108, 1109, 1110, 1111, 1112, 1113, 1114
 1115, 2535, 2536, 2537, 2538, 2539, 2540, 2541, 2542, 2543, 2544, 2545, 2546, 2547, 2548, 2549
*Nset, nset=top-4mm, instance=top-1
   4,   6,   9,  10,  79,  80,  81,  82,  83,  84,  85,  86,  87,  88,  89,  90
  91,  92,  93, 153, 154, 155, 156, 157, 158, 159, 160, 161, 162, 163, 164, 165
 166, 167, 183, 184, 185, 186, 187, 188, 189, 190, 191, 192, 193, 194, 195, 196
 197, 339, 340, 341, 342, 343, 344, 345, 346, 347, 348, 349, 350, 351, 352, 353
*Nset, nset=top-50mm, instance=top-1
   1,   3,   7,   8,  34,  35,  36,  37,  38,  39,  40,  41,  42,  43,  44,  45
  46,  47,  48, 112, 113, 114, 115, 116, 117, 118, 119, 120, 121, 122, 123, 124
 125, 126, 168, 169, 170, 171, 172, 173, 174, 175, 176, 177, 178, 179, 180, 181
 182, 324, 325, 326, 327, 328, 329, 330, 331, 332, 333, 334, 335, 336, 337, 338
*Nset, nset=top-224mm, instance=top-1
   51,   54,  129,  132,  557,  558,  559,  560,  561,  562,  563,  564,  565,  566,  567,  568
  569,  570,  571,  847,  848,  849,  850,  851,  852,  853,  854,  855,  856,  857,  858,  859
  860,  861, 1137, 1138, 1139, 1140, 1141, 1142, 1143, 1144, 1145, 1146, 1147, 1148, 1149, 1150
 1151, 2321, 2322, 2323, 2324, 2325, 2326, 2327, 2328, 2329, 2330, 2331, 2332, 2333, 2334, 2335
*Nset, nset=_PickedSet238, internal, instance=top-rigid-1
 863,
*Nset, nset=_PickedSet239, internal, instance=bottom-rigid-1
 863,
*Elset, elset=__PickedSurf187_S2, internal, instance=bottom-1
  385,  386,  387,  388,  389,  390,  391,  392,  393,  394,  395,  396,  397,  398,  399,  400
  401,  402,  403,  404,  405,  406,  407,  408,  409,  410,  411,  412,  413,  414,  415,  416
  417,  418,  419,  420,  421,  422,  423,  424,  425,  426,  427,  428,  429,  430,  431,  432
  433,  434,  435,  436,  437,  438,  439,  440,  441,  442,  443,  444,  445,  446,  447,  448
  449,  450,  451,  452,  453,  454,  455,  456,  457,  458,  459,  460,  461,  462,  463,  464
  465,  466,  467,  468,  469,  470,  471,  472,  473,  474,  475,  476,  477,  478,  479,  480
  865,  866,  867,  868,  869,  870,  871,  872,  873,  874,  875,  876,  877,  878,  879,  880
  881,  882,  883,  884,  885,  886,  887,  888,  889,  890,  891,  892,  893,  894,  895,  896
  897,  898,  899,  900,  901,  902,  903,  904,  905,  906,  907,  908,  909,  910,  911,  912
  913,  914,  915,  916,  917,  918,  919,  920,  921,  922,  923,  924,  925,  926,  927,  928
  929,  930,  931,  932,  933,  934,  935,  936,  937,  938,  939,  940,  941,  942,  943,  944
  945,  946,  947,  948,  949,  950,  951,  952,  953,  954,  955,  956,  957,  958,  959,  960
 1345, 1346, 1347, 1348, 1349, 1350, 1351, 1352, 1353, 1354, 1355, 1356, 1357, 1358, 1359, 1360
 1361, 1362, 1363, 1364, 1365, 1366, 1367, 1368, 1369, 1370, 1371, 1372, 1373, 1374, 1375, 1376
 1377, 1378, 1379, 1380, 1381, 1382, 1383, 1384, 1385, 1386, 1387, 1388, 1389, 1390, 1391, 1392
 1393, 1394, 1395, 1396, 1397, 1398, 1399, 1400, 1401, 1402, 1403, 1404, 1405, 1406, 1407, 1408
 1409, 1410, 1411, 1412, 1413, 1414, 1415, 1416, 1417, 1418, 1419, 1420, 1421, 1422, 1423, 1424
 1425, 1426, 1427, 1428, 1429, 1430, 1431, 1432, 1433, 1434, 1435, 1436, 1437, 1438, 1439, 1440
 5665, 5666, 5667, 5668, 5669, 5670, 5671, 5672, 5673, 5674, 5675, 5676, 5677, 5678, 5679, 5680
 5681, 5682, 5683, 5684, 5685, 5686, 5687, 5688, 5689, 5690, 5691, 5692, 5693, 5694, 5695, 5696
** ... 4 like lines cut
*Surface, type=ELEMENT, name=_PickedSurf187, internal
__PickedSurf187_S2, S2
*Elset, elset=__PickedSurf188_S4, internal, instance=notch-bottom-1
    2,   30,   36,   37,   50,   57,   61,   68,   71,   75,   84,   99,  100,  103,  127,  136
  148,  157,  166,  175,  181,  194,  197,  198,  199,  205,  218,  234,  239,  244,  247,  265
  271,  302,  312,  327,  353,  380,  408,  409,  430,  437,  447,  478,  480,  485,  490,  493
  546,  637,  757,  818,  830,  922,  936,  957,  961,  997, 1009, 1047, 1178, 1181, 1190, 1197
 1198, 1209, 1239, 1362, 1414, 1417, 1431, 1499, 1610, 1686, 1692, 1704, 1718, 1736, 1742, 1748
 1752, 1885, 1890
*Elset, elset=__PickedSurf188_S3, internal, instance=notch-bottom-1
   15,   19,   20,   21,   22,   44,   54,   56,   63,   89,  113,  114,  115,  125,  141,  142
  149,  165,  191,  192,  195,  211,  266,  267,  297,  337,  413,  432,  458,  467,  489,  500
  517,  526,  536,  562,  573,  586,  616,  618,  619,  628,  639,  648,  656,  662,  667,  672
  677,  690,  691,  693,  694,  699,  704,  705,  706,  707,  708,  710,  711,  718,  721,  723
  726,  733,  739,  740,  746,  748,  755,  761,  766,  768,  769,  771,  776,  778,  780,  785
  788,  790,  791,  792,  793,  798,  799,  800,  801,  802,  803,  805,  806,  807,  808,  810
  811,  813,  814,  815,  816,  819,  823,  825,  827,  828,  831,  832,  833,  834,  836,  837
  840,  841,  842,  843,  844,  845,  846,  850,  852,  853,  854,  856,  857,  860,  861,  862
  867,  868,  869,  871,  877,  882,  885,  889,  890,  893,  895,  897,  898,  901,  902,  903
  904,  909,  912,  915,  917,  919,  920,  921,  924,  925,  927,  929,  930,  931,  933,  935
  937,  939,  945,  948,  955,  959,  973,  995,  999, 1027, 1033, 1037, 1054, 1059, 1086, 1090
 1095, 1101, 1106, 1113, 1123, 1125, 1127, 1128, 1129, 1130, 1148, 1150, 1153, 1156, 1158, 1160
 1161, 1169, 1171, 1172, 1176, 1179, 1184, 1186, 1194, 1200, 1202, 1203, 1205, 1206, 1207, 1210
 1222, 1225, 1228, 1237, 1240, 1241, 1242, 1243, 1250, 1254, 1256, 1257, 1261, 1264, 1266, 1268
 1269, 1270, 1271, 1272, 1273, 1275, 1276, 1279, 1282, 1285, 1286, 1288, 1290, 1292, 1293, 1295
 1296, 1305, 1306, 1307, 1310, 1312, 1315, 1318, 1320, 1322, 1323, 1325, 1327, 1328, 1329, 1331
 1332, 1333, 1338, 1339, 1340, 1343, 1344, 1346, 1348, 1349, 1350, 1352, 1353, 1355, 1357, 1365
 1367, 1369, 1370, 1371, 1372, 1374, 1379, 1381, 1386, 1387, 1389, 1391, 1394, 1395, 1396, 1397
 1409, 1411, 1419, 1422, 1423, 1425, 1440, 1442, 1457, 1462, 1470, 1489, 1495, 1511, 1514, 1528
 1542, 1549, 1565, 1566, 1570, 1573, 1581, 1583, 1585, 1588, 1590, 1591, 1592, 1599, 1600, 1605
** ... 8 like lines cut
*Elset, elset=__PickedSurf188_S2, internal, instance=notch-bottom-1
   25,   31,   34,   42,   47,   67,   70,   87,   93,   94,   97,  120,  126,  128,  133,  144
  147,  154,  173,  179,  187,  217,  241,  245,  263,  279,  301,  335,  350,  358,  367,  382
  385,  412,  421,  424,  438,  441,  446,  448,  473,  594,  597,  688,  701,  821,  886,  894
  900,  918,  923, 1000, 1043, 1175, 1226, 1260, 1265, 1287, 1313, 1392, 1401, 1410, 1472, 1703
 1739, 1775, 1786, 1864, 1880, 1887
*Elset, elset=__PickedSurf188_S1, internal, instance=notch-bottom-1
   24,   32,   33,   39,   52,   58,   60,   80,   82,   86,   90,  105,  106,  109,  119,  123
  124,  131,  135,  143,  145,  153,  158,  159,  162,  177,  184,  185,  200,  202,  209,  221
  235,  236,  238,  246,  250,  260,  288,  300,  330,  338,  360,  381,  387,  414,  451,  454
  459,  475,  482,  483,  484,  494,  891,  942,  943,  951, 1071, 1134, 1149, 1188, 1219, 1324
 1359, 1377, 1486, 1608, 1710, 1712, 1725, 1874, 1889
*Surface, type=ELEMENT, name=_PickedSurf188, internal
__PickedSurf188_S4, S4
__PickedSurf188_S3, S3
__PickedSurf188_S2, S2
__PickedSurf188_S1, S1
*Elset, elset=__PickedSurf189_S2, internal, instance=notch-middle-1, generate
   1,  272,    1
*Surface, type=ELEMENT, name=_PickedSurf189, internal
__PickedSurf189_S2, S2
*Elset, elset=__PickedSurf190_S3, internal, instance=notch-bottom-1
   45,   65,  108,  168,  186,  188,  190,  201,  203,  206,  210,  212,  213,  214,  215,  216
  227,  228,  230,  231,  232,  237,  248,  253,  254,  255,  256,  264,  269,  273,  274,  282
  284,  287,  293,  294,  296,  303,  307,  309,  311,  313,  315,  316,  317,  318,  319,  320
  322,  323,  324,  325,  328,  336,  339,  341,  342,  343,  344,  345,  347,  349,  351,  354
  355,  356,  361,  363,  366,  368,  369,  372,  373,  374,  375,  376,  377,  378,  379,  383
  384,  386,  393,  395,  396,  398,  399,  400,  401,  403,  405,  407,  410,  415,  418,  423
  434,  439,  443,  444,  449,  450,  455,  457,  461,  469,  495,  518,  528,  534,  643,  669
  730,  735,  744,  760,  896,  914,  966,  968,  977, 1053, 1082, 1119, 1432, 1437, 1475, 1553
 1574, 1616, 1632, 1633, 1648, 1799, 1835, 1849, 1888, 1910
*Elset, elset=__PickedSurf190_S4, internal, instance=notch-bottom-1
   38,  107,  305,  497,  510,  515,  557,  574,  599,  612,  634,  638,  653,  678,  683,  692
  696,  709,  714,  720,  722,  725,  738,  758,  762,  795,  804,  855,  870,  879,  938,  949
  971,  980, 1003, 1013, 1016, 1018, 1019, 1036, 1056, 1063, 1066, 1076, 1077, 1103, 1107, 1118
 1131, 1195, 1217, 1263, 1283, 1300, 1304, 1384, 1416, 1441, 1464, 1477, 1482, 1517, 1524, 1535
 1571, 1595, 1596, 1669, 1780, 1787, 1793, 1794, 1806, 1838, 1878, 1899
*Elset, elset=__PickedSurf190_S1, internal, instance=notch-bottom-1
   76,  346,  392,  499,  505,  519,  524,  530,  541,  543,  563,  567,  570,  572,  578,  588
  589,  624,  636,  663,  681,  717,  727,  734,  764,  783,  786,  787,  789,  848,  851,  858
  866,  892,  907,  913,  928,  994, 1005, 1042, 1045, 1048, 1049, 1055, 1057, 1068, 1080, 1084
 1085, 1087, 1096, 1105, 1115, 1117, 1144, 1224, 1234, 1253, 1255, 1267, 1280, 1284, 1291, 1308
 1334, 1345, 1364, 1368, 1434, 1443, 1447, 1453, 1463, 1467, 1469, 1497, 1504, 1520, 1522, 1525
 1527, 1529, 1554, 1586, 1604, 1606, 1625, 1640, 1643, 1645, 1659, 1663, 1701, 1726, 1737, 1745
 1782, 1829, 1839, 1840, 1860, 1895, 1898, 1900, 1905
*Elset, elset=__PickedSurf190_S2, internal, instance=notch-bottom-1
  314,  362,  370,  371,  394,  402,  404,  422,  502,  503,  506,  507,  508,  509,  511,  514
  529,  533,  548,  549,  551,  556,  558,  566,  571,  580,  584,  585,  591,  596,  600,  601
  609,  617,  621,  627,  630,  641,  652,  664,  670,  671,  676,  679,  680,  702,  729,  731
  732,  752,  772,  774,  784,  899,  932,  940,  965,  967,  982,  983,  985,  986,  989,  990
  993,  998, 1006, 1010, 1021, 1025, 1028, 1032, 1034, 1039, 1050, 1051, 1060, 1065, 1072, 1073
 1074, 1091, 1094, 1099, 1100, 1104, 1111, 1114, 1116, 1122, 1140, 1141, 1146, 1162, 1177, 1187
 1238, 1258, 1289, 1297, 1316, 1317, 1335, 1347, 1356, 1373, 1378, 1380, 1382, 1388, 1399, 1420
 1424, 1436, 1439, 1444, 1448, 1449, 1450, 1451, 1456, 1459, 1461, 1465, 1466, 1468, 1473, 1479
 1480, 1490, 1492, 1493, 1494, 1500, 1503, 1505, 1507, 1508, 1510, 1512, 1515, 1532, 1541, 1547
 1552, 1559, 1577, 1579, 1580, 1589, 1593, 1611, 1617, 1628, 1630, 1652, 1670, 1672, 1681, 1722
 1756, 1765, 1772, 1777, 1785, 1800, 1820
*Surface, type=ELEMENT, name=_PickedSurf190, internal
__PickedSurf190_S3, S3
__PickedSurf190_S4, S4
__PickedSurf190_S2, S2
__PickedSurf190_S1, S1
*Elset, elset=__PickedSurf191_S1, internal, instance=notch-middle-1, generate
   1,  272,    1
*Surface, type=ELEMENT, name=_PickedSurf191, internal
__PickedSurf191_S1, S1
*Elset, elset=__PickedSurf192_S4, internal, instance=notch-top-1
   27,   30,   32,   47,   59,   96,   99,  121,  129,  130,  134,  135,  142,  157,  168,  174
  182,  194,  198,  212,  314,  333,  355,  369,  382,  414,  436,  444,  450,  488,  523,  614
  628,  759,  856,  867,  902,  905,  945,  955,  961,  990, 1001, 1020, 1059, 1093, 1181, 1272
 1306, 1309, 1358, 1562, 1616, 1625, 1701, 1795, 1866
*Elset, elset=__PickedSurf192_S1, internal, instance=notch-top-1
    8,   10,   14,   28,   39,   46,   49,   50,   57,   77,   79,   85,   88,   90,  104,  118
  122,  123,  133,  138,  139,  147,  169,  180,  196,  197,  263,  282,  320,  326,  345,  373
  387,  402,  405,  409,  422,  463,  465,  466,  522,  524,  681,  724,  813,  917,  968,  969
 1084, 1235, 1368, 1374, 1396, 1400, 1552, 1580, 1643, 1742, 1877
*Elset, elset=__PickedSurf192_S3, internal, instance=notch-top-1
    7,  140,  192,  352,  502,  525,  561,  572,  581,  584,  592,  596,  602,  606,  623,  638
  641,  642,  644,  645,  646,  671,  673,  674,  685,  691,  694,  696,  698,  701,  715,  716
  722,  741,  745,  749,  752,  754,  757,  761,  763,  769,  770,  773,  792,  800,  803,  805
  806,  807,  809,  810,  812,  816,  818,  820,  825,  831,  834,  841,  842,  844,  845,  847
  849,  851,  853,  857,  862,  863,  866,  869,  872,  873,  878,  879,  880,  881,  885,  886
  887,  892,  897,  898,  899,  909,  910,  911,  916,  918,  919,  923,  924,  929,  930,  931
  932,  933,  934,  936,  939,  941,  943,  944,  946,  950,  953,  984,  986, 1010, 1021, 1022
 1033, 1040, 1050, 1057, 1061, 1062, 1067, 1069, 1079, 1088, 1101, 1105, 1117, 1118, 1127, 1130
 1134, 1137, 1145, 1148, 1151, 1167, 1170, 1190, 1200, 1204, 1208, 1212, 1217, 1218, 1220, 1232
 1240, 1242, 1245, 1284, 1285, 1290, 1292, 1295, 1297, 1299, 1300, 1301, 1302, 1304, 1305, 1311
 1313, 1314, 1315, 1316, 1325, 1326, 1327, 1329, 1335, 1340, 1345, 1350, 1351, 1357, 1362, 1364
 1365, 1367, 1370, 1377, 1379, 1380, 1381, 1382, 1383, 1384, 1388, 1390, 1391, 1392, 1398, 1399
 1402, 1404, 1408, 1409, 1410, 1412, 1413, 1415, 1418, 1423, 1426, 1429, 1431, 1432, 1436, 1438
 1439, 1460, 1491, 1505, 1509, 1513, 1523, 1527, 1538, 1554, 1555, 1557, 1563, 1566, 1575, 1579
 1585, 1586, 1587, 1597, 1601, 1608, 1615, 1617, 1619, 1636, 1648, 1662, 1676, 1680, 1682, 1684
 1689, 1694, 1700, 1705, 1709, 1711, 1714, 1726, 1728, 1729, 1731, 1734, 1735, 1736, 1737, 1740
 1762, 1765, 1766, 1768, 1769, 1770, 1772, 1781, 1782, 1787, 1788, 1790, 1791, 1794, 1797, 1802
 1803, 1807, 1809, 1811, 1812, 1814, 1816, 1817, 1820, 1822, 1825, 1829, 1834, 1835, 1836, 1841
 1844, 1846, 1849, 1851, 1853, 1855, 1856, 1859, 1860, 1862, 1863, 1871, 1874, 1875, 1876, 1880
 1881, 1882, 1885, 1886, 1887, 1891, 1893, 1895, 1899
*Elset, elset=__PickedSurf192_S2, internal, instance=notch-top-1
    2,    4,    9,   16,   18,   21,   24,   33,   35,   58,   71,   72,   75,   76,   80,   89
   92,  106,  108,  115,  117,  126,  131,  141,  144,  146,  161,  164,  184,  187,  189,  215
  240,  248,  259,  324,  346,  349,  350,  353,  363,  378,  385,  397,  418,  420,  580,  647
  904,  913, 1291, 1360, 1403, 1416, 1434, 1442, 1774, 1777, 1793
*Surface, type=ELEMENT, name=_PickedSurf192, internal
__PickedSurf192_S4, S4
__PickedSurf192_S1, S1
__PickedSurf192_S2, S2
__PickedSurf192_S3, S3
*Elset, elset=__PickedSurf193_S2, internal, instance=top-1
  385,  386,  387,  388,  389,  390,  391,  392,  393,  394,  395,  396,  397,  398,  399,  400
  401,  402,  403,  404,  405,  406,  407,  408,  409,  410,  411,  412,  413,  414,  415,  416
  417,  418,  419,  420,  421,  422,  423,  424,  425,  426,  427,  428,  429,  430,  431,  432
  433,  434,  435,  436,  437,  438,  439,  440,  441,  442,  443,  444,  445,  446,  447,  448
  449,  450,  451,  452,  453,  454,  455,  456,  457,  458,  459,  460,  461,  462,  463,  464
  465,  466,  467,  468,  469,  470,  471,  472,  473,  474,  475,  476,  477,  478,  479,  480
  865,  866,  867,  868,  869,  870,  871,  872,  873,  874,  875,  876,  877,  878,  879,  880
  881,  882,  883,  884,  885,  886,  887,  888,  889,  890,  891,  892,  893,  894,  895,  896
  897,  898,  899,  900,  901,  902,  903,  904,  905,  906,  907,  908,  909,  910,  911,  912
  913,  914,  915,  916,  917,  918,  919,  920,  921,  922,  923,  924,  925,  926,  927,  928
  929,  930,  931,  932,  933,  934,  935,  936,  937,  938,  939,  940,  941,  942,  943,  944
  945,  946,  947,  948,  949,  950,  951,  952,  953,  954,  955,  956,  957,  958,  959,  960
 1345, 1346, 1347, 1348, 1349, 1350, 1351, 1352, 1353, 1354, 1355, 1356, 1357, 1358, 1359, 1360
 1361, 1362, 1363, 1364, 1365, 1366, 1367, 1368, 1369, 1370, 1371, 1372, 1373, 1374, 1375, 1376
 1377, 1378, 1379, 1380, 1381, 1382, 1383, 1384, 1385, 1386, 1387, 1388, 1389, 1390, 1391, 1392
 1393, 1394, 1395, 1396, 1397, 1398, 1399, 1400, 1401, 1402, 1403, 1404, 1405, 1406, 1407, 1408
 1409, 1410, 1411, 1412, 1413, 1414, 1415, 1416, 1417, 1418, 1419, 1420, 1421, 1422, 1423, 1424
 1425, 1426, 1427, 1428, 1429, 1430, 1431, 1432, 1433, 1434, 1435, 1436, 1437, 1438, 1439, 1440
 4705, 4706, 4707, 4708, 4709, 4710, 4711, 4712, 4713, 4714, 4715, 4716, 4717, 4718, 4719, 4720
 4721, 4722, 4723, 4724, 4725, 4726, 4727, 4728, 4729, 4730, 4731, 4732, 4733, 4734, 4735, 4736
** ... 4 like lines cut
*Surface, type=ELEMENT, name=_PickedSurf193, internal
__PickedSurf193_S2, S2
*Elset, elset=__PickedSurf194_S4, internal, instance=notch-top-1
    6,   66,   93,  107,  173,  228,  272,  285,  298,  315,  390,  446,  481,  482,  489,  494
  495,  516,  517,  545,  556,  563,  585,  616,  627,  630,  637,  648,  656,  657,  660,  665
  672,  709,  717,  732,  744,  765,  766,  779,  785,  793,  795,  797,  798,  811,  824,  832
  907,  914,  938,  948,  960,  967,  980,  988,  993, 1016, 1024, 1029, 1036, 1055, 1056, 1072
 1082, 1089, 1090, 1153, 1155, 1180, 1192, 1199, 1203, 1246, 1255, 1262, 1264, 1287, 1289, 1298
 1312, 1320, 1333, 1334, 1352, 1361, 1366, 1371, 1378, 1422, 1433, 1445, 1453, 1463, 1468, 1501
 1506, 1516, 1517, 1519, 1520, 1522, 1545, 1582, 1618, 1622, 1624, 1631, 1641, 1645, 1647, 1651
 1657, 1666, 1671, 1710, 1712, 1717, 1745, 1805, 1810, 1821, 1857, 1873, 1878, 1889, 1900, 1905
*Elset, elset=__PickedSurf194_S3, internal, instance=notch-top-1
   38,   48,   51,   54,   60,   65,   74,   95,   98,  100,  101,  103,  111,  112,  113,  124
  132,  148,  153,  154,  155,  162,  163,  166,  167,  175,  177,  188,  190,  191,  199,  200
  209,  211,  213,  219,  224,  226,  232,  233,  235,  236,  238,  239,  241,  243,  244,  246
  249,  254,  255,  256,  257,  264,  266,  267,  275,  276,  277,  280,  281,  283,  292,  299
  302,  304,  316,  317,  318,  321,  323,  328,  330,  331,  332,  335,  336,  337,  341,  342
  343,  348,  354,  356,  361,  362,  364,  365,  367,  368,  370,  371,  377,  379,  380,  381
  384,  386,  388,  389,  391,  392,  393,  394,  395,  399,  401,  403,  404,  411,  412,  413
  416,  419,  421,  424,  426,  431,  433,  435,  438,  439,  443,  445,  447,  448,  451,  453
  462,  464,  532,  536,  582,  618,  626,  664, 1028, 1030, 1066, 1083, 1116, 1147, 1174, 1209
 1228, 1244, 1395, 1447, 1494, 1525, 1600, 1642, 1673, 1718, 1755
*Elset, elset=__PickedSurf194_S1, internal, instance=notch-top-1
   52,   62,   82,  128,  269,  270,  287,  294,  428,  506,  514,  527,  529,  538,  541,  546
  564,  565,  569,  570,  594,  598,  603,  609,  610,  617,  620,  621,  624,  625,  650,  655
  659,  663,  667,  668,  669,  675,  687,  688,  705,  714,  720,  721,  727,  733,  734,  737
  739,  756,  760,  767,  776,  778,  782,  814,  837,  859,  868,  877,  884,  888,  894,  896
  908,  920,  935,  956,  959,  962,  964,  972,  976,  991,  994,  996, 1015, 1017, 1018, 1023
 1026, 1034, 1037, 1045, 1064, 1096, 1099, 1100, 1112, 1113, 1114, 1120, 1131, 1135, 1139, 1141
 1146, 1158, 1175, 1183, 1191, 1193, 1194, 1197, 1202, 1206, 1207, 1251, 1252, 1266, 1308, 1338
 1339, 1342, 1349, 1354, 1356, 1385, 1387, 1393, 1397, 1407, 1435, 1449, 1458, 1466, 1477, 1479
 1488, 1497, 1504, 1507, 1528, 1531, 1534, 1535, 1536, 1540, 1556, 1561, 1568, 1592, 1598, 1603
 1609, 1629, 1633, 1638, 1653, 1656, 1678, 1681, 1686, 1688, 1690, 1696, 1719, 1721, 1747, 1748
 1752, 1753, 1754, 1758, 1767, 1773, 1785, 1806, 1808, 1813, 1823, 1828, 1837, 1842, 1845, 1865
 1869, 1888
*Elset, elset=__PickedSurf194_S2, internal, instance=notch-top-1
    3,   94,  176,  220,  221,  262,  322,  366,  408,  417,  472,  474,  475,  476,  477,  479
  483,  487,  491,  493,  498,  511,  521,  526,  530,  535,  540,  548,  554,  555,  558,  560
  567,  574,  575,  576,  577,  579,  586,  588,  599,  604,  632,  635,  666,  670,  676,  677
  682,  684,  699,  719,  726,  731,  742,  748,  751,  774,  775,  777,  783,  802,  804,  808
  817,  826,  852,  858,  864,  865,  883,  895,  900,  901,  928,  947,  957,  978,  981,  982
  999, 1000, 1002, 1004, 1006, 1027, 1043, 1044, 1046, 1049, 1060, 1063, 1065, 1077, 1085, 1094
 1097, 1103, 1104, 1115, 1123, 1126, 1128, 1142, 1156, 1160, 1162, 1164, 1166, 1176, 1179, 1182
 1188, 1196, 1198, 1215, 1221, 1227, 1229, 1231, 1234, 1238, 1241, 1250, 1253, 1260, 1261, 1277
 1278, 1280, 1281, 1283, 1322, 1328, 1341, 1369, 1375, 1386, 1389, 1424, 1450, 1455, 1457, 1459
 1465, 1469, 1473, 1474, 1485, 1486, 1490, 1495, 1500, 1502, 1511, 1514, 1524, 1526, 1539, 1542
 1543, 1550, 1551, 1558, 1560, 1567, 1572, 1577, 1578, 1581, 1590, 1599, 1605, 1607, 1613, 1614
 1621, 1637, 1639, 1640, 1646, 1654, 1655, 1658, 1661, 1665, 1692, 1695, 1697, 1698, 1699, 1715
 1724, 1741, 1775, 1789, 1854, 1883, 1897, 1902, 1903
*Surface, type=ELEMENT, name=_PickedSurf194, internal
__PickedSurf194_S4, S4
__PickedSurf194_S3, S3
__PickedSurf194_S2, S2
__PickedSurf194_S1, S1
*Elset, elset=__PickedSurf199_S1, internal, instance=bottom-plate-1
    1,    2,    3,    4,    5,    6,    7,    8,    9,   10,   11,   12,   13,   14,   15,   16
   17,   18,   19,   20,   21,   22,   23,   24,   25,   26,   27,   28,   29,   30,   31,   32
   33,   34,   35,   36,   37,   38,   39,   40,   41,   42,   43,   44,   45,   46,   47,   48
   49,   50,   51,   52,   53,   54,   55,   56,   57,   58,   59,   60,   61,   62,   63,   64
   65,   66,   67,   68,   69,   70,   71,   72,   73,   74,   75,   76,   77,   78,   79,   80
   81,   82,   83,   84,   85,   86,   87,   88,   89,   90,   91,   92,   93,   94,   95,   96
 1057, 1058, 1059, 1060, 1061, 1062, 1063, 1064, 1065, 1066, 1067, 1068, 1069, 1070, 1071, 1072
 1073, 1074, 1075, 1076, 1077, 1078, 1079, 1080, 1081, 1082, 1083, 1084, 1085, 1086, 1087, 1088
 1089, 1090, 1091, 1092, 1093, 1094, 1095, 1096, 1097, 1098, 1099, 1100, 1101, 1102, 1103, 1104
 1105, 1106, 1107, 1108, 1109, 1110, 1111, 1112, 1113, 1114, 1115, 1116, 1117, 1118, 1119, 1120
 1121, 1122, 1123, 1124, 1125, 1126, 1127, 1128, 1129, 1130, 1131, 1132, 1133, 1134, 1135, 1136
 1137, 1138, 1139, 1140, 1141, 1142, 1143, 1144, 1145, 1146, 1147, 1148, 1149, 1150, 1151, 1152
 2113, 2114, 2115, 2116, 2117, 2118, 2119, 2120, 2121, 2122, 2123, 2124, 2125, 2126, 2127, 2128
 2129, 2130, 2131, 2132, 2133, 2134, 2135, 2136, 2137, 2138, 2139, 2140, 2141, 2142, 2143, 2144
 2145, 2146, 2147, 2148, 2149, 2150, 2151, 2152, 2153, 2154, 2155, 2156, 2157, 2158, 2159, 2160
 2161, 2162, 2163, 2164, 2165, 2166, 2167, 2168, 2169, 2170, 2171, 2172, 2173, 2174, 2175, 2176
 2177, 2178, 2179, 2180, 2181, 2182, 2183, 2184, 2185, 2186, 2187, 2188, 2189, 2190, 2191, 2192
 2193, 2194, 2195, 2196, 2197, 2198, 2199, 2200, 2201, 2202, 2203, 2204, 2205, 2206, 2207, 2208
 3169, 3170, 3171, 3172, 3173, 3174, 3175, 3176, 3177, 3178, 3179, 3180, 3181, 3182, 3183, 3184
 3185, 3186, 3187, 3188, 3189, 3190, 3191, 3192, 3193, 3194, 3195, 3196, 3197, 3198, 3199, 3200
** ... 4 like lines cut
*Surface, type=ELEMENT, name=_PickedSurf199, internal
__PickedSurf199_S1, S1
*Elset, elset=__PickedSurf200_S2, internal, instance=bottom-1
 2305, 2306, 2307, 2308, 2309, 2310, 2311, 2312, 2313, 2314, 2315, 2316, 2317, 2318, 2319, 2320
 2321, 2322, 2323, 2324, 2325, 2326, 2327, 2328, 2329, 2330, 2331, 2332, 2333, 2334, 2335, 2336
 2337, 2338, 2339, 2340, 2341, 2342, 2343, 2344, 2345, 2346, 2347, 2348, 2349, 2350, 2351, 2352
 2353, 2354, 2355, 2356, 2357, 2358, 2359, 2360, 2361, 2362, 2363, 2364, 2365, 2366, 2367, 2368
 2369, 2370, 2371, 2372, 2373, 2374, 2375, 2376, 2377, 2378, 2379, 2380, 2381, 2382, 2383, 2384
 2385, 2386, 2387, 2388, 2389, 2390, 2391, 2392, 2393, 2394, 2395, 2396, 2397, 2398, 2399, 2400
 3265, 3266, 3267, 3268, 3269, 3270, 3271, 3272, 3273, 3274, 3275, 3276, 3277, 3278, 3279, 3280
 3281, 3282, 3283, 3284, 3285, 3286, 3287, 3288, 3289, 3290, 3291, 3292, 3293, 3294, 3295, 3296
 3297, 3298, 3299, 3300, 3301, 3302, 3303, 3304, 3305, 3306, 3307, 3308, 3309, 3310, 3311, 3312
 3313, 3314, 3315, 3316, 3317, 3318, 3319, 3320, 3321, 3322, 3323, 3324, 3325, 3326, 3327, 3328
 3329, 3330, 3331, 3332, 3333, 3334, 3335, 3336, 3337, 3338, 3339, 3340, 3341, 3342, 3343, 3344
 3345, 3346, 3347, 3348, 3349, 3350, 3351, 3352, 3353, 3354, 3355, 3356, 3357, 3358, 3359, 3360
 4225, 4226, 4227, 4228, 4229, 4230, 4231, 4232, 4233, 4234, 4235, 4236, 4237, 4238, 4239, 4240
 4241, 4242, 4243, 4244, 4245, 4246, 4247, 4248, 4249, 4250, 4251, 4252, 4253, 4254, 4255, 4256
 4257, 4258, 4259, 4260, 4261, 4262, 4263, 4264, 4265, 4266, 4267, 4268, 4269, 4270, 4271, 4272
 4273, 4274, 4275, 4276, 4277, 4278, 4279, 4280, 4281, 4282, 4283, 4284, 4285, 4286, 4287, 4288
 4289, 4290, 4291, 4292, 4293, 4294, 4295, 4296, 4297, 4298, 4299, 4300, 4301, 4302, 4303, 4304
 4305, 4306, 4307, 4308, 4309, 4310, 4311, 4312, 4313, 4314, 4315, 4316, 4317, 4318, 4319, 4320
 5185, 5186, 5187, 5188, 5189, 5190, 5191, 5192, 5193, 5194, 5195, 5196, 5197, 5198, 5199, 5200
 5201, 5202, 5203, 5204, 5205, 5206, 5207, 5208, 5209, 5210, 5211, 5212, 5213, 5214, 5215, 5216
** ... 4 like lines cut
*Surface, type=ELEMENT, name=_PickedSurf200, internal
__PickedSurf200_S2, S2
*Elset, elset=__PickedSurf222_S2, internal, instance=top-plate-1
  961,  962,  963,  964,  965,  966,  967,  968,  969,  970,  971,  972,  973,  974,  975,  976
  977,  978,  979,  980,  981,  982,  983,  984,  985,  986,  987,  988,  989,  990,  991,  992
  993,  994,  995,  996,  997,  998,  999, 1000, 1001, 1002, 1003, 1004, 1005, 1006, 1007, 1008
 1009, 1010, 1011, 1012, 1013, 1014, 1015, 1016, 1017, 1018, 1019, 1020, 1021, 1022, 1023, 1024
 1025, 1026, 1027, 1028, 1029, 1030, 1031, 1032, 1033, 1034, 1035, 1036, 1037, 1038, 1039, 1040
 1041, 1042, 1043, 1044, 1045, 1046, 1047, 1048, 1049, 1050, 1051, 1052, 1053, 1054, 1055, 1056
 2017, 2018, 2019, 2020, 2021, 2022, 2023, 2024, 2025, 2026, 2027, 2028, 2029, 2030, 2031, 2032
 2033, 2034, 2035, 2036, 2037, 2038, 2039, 2040, 2041, 2042, 2043, 2044, 2045, 2046, 2047, 2048
 2049, 2050, 2051, 2052, 2053, 2054, 2055, 2056, 2057, 2058, 2059, 2060, 2061, 2062, 2063, 2064
 2065, 2066, 2067, 2068, 2069, 2070, 2071, 2072, 2073, 2074, 2075, 2076, 2077, 2078, 2079, 2080
 2081, 2082, 2083, 2084, 2085, 2086, 2087, 2088, 2089, 2090, 2091, 2092, 2093, 2094, 2095, 2096
 2097, 2098, 2099, 2100, 2101, 2102, 2103, 2104, 2105, 2106, 2107, 2108, 2109, 2110, 2111, 2112
 3073, 3074, 3075, 3076, 3077, 3078, 3079, 3080, 3081, 3082, 3083, 3084, 3085, 3086, 3087, 3088
 3089, 3090, 3091, 3092, 3093, 3094, 3095, 3096, 3097, 3098, 3099, 3100, 3101, 3102, 3103, 3104
 3105, 3106, 3107, 3108, 3109, 3110, 3111, 3112, 3113, 3114, 3115, 3116, 3117, 3118, 3119, 3120
 3121, 3122, 3123, 3124, 3125, 3126, 3127, 3128, 3129, 3130, 3131, 3132, 3133, 3134, 3135, 3136
 3137, 3138, 3139, 3140, 3141, 3142, 3143, 3144, 3145, 3146, 3147, 3148, 3149, 3150, 3151, 3152
 3153, 3154, 3155, 3156, 3157, 3158, 3159, 3160, 3161, 3162, 3163, 3164, 3165, 3166, 3167, 3168
 4129, 4130, 4131, 4132, 4133, 4134, 4135, 4136, 4137, 4138, 4139, 4140, 4141, 4142, 4143, 4144
 4145, 4146, 4147, 4148, 4149, 4150, 4151, 4152, 4153, 4154, 4155, 4156, 4157, 4158, 4159, 4160
** ... 4 like lines cut
*Surface, type=ELEMENT, name=_PickedSurf222, internal
__PickedSurf222_S2, S2
*Elset, elset=__PickedSurf223_S2, internal, instance=top-1
 2305, 2306, 2307, 2308, 2309, 2310, 2311, 2312, 2313, 2314, 2315, 2316, 2317, 2318, 2319, 2320
 2321, 2322, 2323, 2324, 2325, 2326, 2327, 2328, 2329, 2330, 2331, 2332, 2333, 2334, 2335, 2336
 2337, 2338, 2339, 2340, 2341, 2342, 2343, 2344, 2345, 2346, 2347, 2348, 2349, 2350, 2351, 2352
 2353, 2354, 2355, 2356, 2357, 2358, 2359, 2360, 2361, 2362, 2363, 2364, 2365, 2366, 2367, 2368
 2369, 2370, 2371, 2372, 2373, 2374, 2375, 2376, 2377, 2378, 2379, 2380, 2381, 2382, 2383, 2384
 2385, 2386, 2387, 2388, 2389, 2390, 2391, 2392, 2393, 2394, 2395, 2396, 2397, 2398, 2399, 2400
 3265, 3266, 3267, 3268, 3269, 3270, 3271, 3272, 3273, 3274, 3275, 3276, 3277, 3278, 3279, 3280
 3281, 3282, 3283, 3284, 3285, 3286, 3287, 3288, 3289, 3290, 3291, 3292, 3293, 3294, 3295, 3296
 3297, 3298, 3299, 3300, 3301, 3302, 3303, 3304, 3305, 3306, 3307, 3308, 3309, 3310, 3311, 3312
 3313, 3314, 3315, 3316, 3317, 3318, 3319, 3320, 3321, 3322, 3323, 3324, 3325, 3326, 3327, 3328
 3329, 3330, 3331, 3332, 3333, 3334, 3335, 3336, 3337, 3338, 3339, 3340, 3341, 3342, 3343, 3344
 3345, 3346, 3347, 3348, 3349, 3350, 3351, 3352, 3353, 3354, 3355, 3356, 3357, 3358, 3359, 3360
 4225, 4226, 4227, 4228, 4229, 4230, 4231, 4232, 4233, 4234, 4235, 4236, 4237, 4238, 4239, 4240
 4241, 4242, 4243, 4244, 4245, 4246, 4247, 4248, 4249, 4250, 4251, 4252, 4253, 4254, 4255, 4256
 4257, 4258, 4259, 4260, 4261, 4262, 4263, 4264, 4265, 4266, 4267, 4268, 4269, 4270, 4271, 4272
 4273, 4274, 4275, 4276, 4277, 4278, 4279, 4280, 4281, 4282, 4283, 4284, 4285, 4286, 4287, 4288
 4289, 4290, 4291, 4292, 4293, 4294, 4295, 4296, 4297, 4298, 4299, 4300, 4301, 4302, 4303, 4304
 4305, 4306, 4307, 4308, 4309, 4310, 4311, 4312, 4313, 4314, 4315, 4316, 4317, 4318, 4319, 4320
 5665, 5666, 5667, 5668, 5669, 5670, 5671, 5672, 5673, 5674, 5675, 5676, 5677, 5678, 5679, 5680
 5681, 5682, 5683, 5684, 5685, 5686, 5687, 5688, 5689, 5690, 5691, 5692, 5693, 5694, 5695, 5696
** ... 4 like lines cut
*Surface, type=ELEMENT, name=_PickedSurf223, internal
__PickedSurf223_S2, S2
*Elset, elset=__PickedSurf234_SPOS, internal, instance=top-rigid-1, generate
  65,  461,    1
*Surface, type=ELEMENT, name=_PickedSurf234, internal
__PickedSurf234_SPOS, SPOS
*Elset, elset=__PickedSurf235_S1, internal, instance=top-plate-1
    1,    2,    3,    4,    5,    6,    7,    8,    9,   10,   11,   12,   13,   14,   15,   16
   17,   18,   19,   20,   21,   22,   23,   24,   25,   26,   27,   28,   29,   30,   31,   32
   33,   34,   35,   36,   37,   38,   39,   40,   41,   42,   43,   44,   45,   46,   47,   48
   49,   50,   51,   52,   53,   54,   55,   56,   57,   58,   59,   60,   61,   62,   63,   64
   65,   66,   67,   68,   69,   70,   71,   72,   73,   74,   75,   76,   77,   78,   79,   80
   81,   82,   83,   84,   85,   86,   87,   88,   89,   90,   91,   92,   93,   94,   95,   96
 1057, 1058, 1059, 1060, 1061, 1062, 1063, 1064, 1065, 1066, 1067, 1068, 1069, 1070, 1071, 1072
 1073, 1074, 1075, 1076, 1077, 1078, 1079, 1080, 1081, 1082, 1083, 1084, 1085, 1086, 1087, 1088
 1089, 1090, 1091, 1092, 1093, 1094, 1095, 1096, 1097, 1098, 1099, 1100, 1101, 1102, 1103, 1104
 1105, 1106, 1107, 1108, 1109, 1110, 1111, 1112, 1113, 1114, 1115, 1116, 1117, 1118, 1119, 1120
 1121, 1122, 1123, 1124, 1125, 1126, 1127, 1128, 1129, 1130, 1131, 1132, 1133, 1134, 1135, 1136
 1137, 1138, 1139, 1140, 1141, 1142, 1143, 1144, 1145, 1146, 1147, 1148, 1149, 1150, 1151, 1152
 2113, 2114, 2115, 2116, 2117, 2118, 2119, 2120, 2121, 2122, 2123, 2124, 2125, 2126, 2127, 2128
 2129, 2130, 2131, 2132, 2133, 2134, 2135, 2136, 2137, 2138, 2139, 2140, 2141, 2142, 2143, 2144
 2145, 2146, 2147, 2148, 2149, 2150, 2151, 2152, 2153, 2154, 2155, 2156, 2157, 2158, 2159, 2160
 2161, 2162, 2163, 2164, 2165, 2166, 2167, 2168, 2169, 2170, 2171, 2172, 2173, 2174, 2175, 2176
 2177, 2178, 2179, 2180, 2181, 2182, 2183, 2184, 2185, 2186, 2187, 2188, 2189, 2190, 2191, 2192
 2193, 2194, 2195, 2196, 2197, 2198, 2199, 2200, 2201, 2202, 2203, 2204, 2205, 2206, 2207, 2208
 3169, 3170, 3171, 3172, 3173, 3174, 3175, 3176, 3177, 3178, 3179, 3180, 3181, 3182, 3183, 3184
 3185, 3186, 3187, 3188, 3189, 3190, 3191, 3192, 3193, 3194, 3195, 3196, 3197, 3198, 3199, 3200
** ... 4 like lines cut
*Surface, type=ELEMENT, name=_PickedSurf235, internal
__PickedSurf235_S1, S1
*Elset, elset=__PickedSurf236_SPOS, internal, instance=bottom-rigid-1, generate
 462,  860,    1
*Surface, type=ELEMENT, name=_PickedSurf236, internal
__PickedSurf236_SPOS, SPOS
*Elset, elset=__PickedSurf237_S2, internal, instance=bottom-plate-1
  961,  962,  963,  964,  965,  966,  967,  968,  969,  970,  971,  972,  973,  974,  975,  976
  977,  978,  979,  980,  981,  982,  983,  984,  985,  986,  987,  988,  989,  990,  991,  992
  993,  994,  995,  996,  997,  998,  999, 1000, 1001, 1002, 1003, 1004, 1005, 1006, 1007, 1008
 1009, 1010, 1011, 1012, 1013, 1014, 1015, 1016, 1017, 1018, 1019, 1020, 1021, 1022, 1023, 1024
 1025, 1026, 1027, 1028, 1029, 1030, 1031, 1032, 1033, 1034, 1035, 1036, 1037, 1038, 1039, 1040
 1041, 1042, 1043, 1044, 1045, 1046, 1047, 1048, 1049, 1050, 1051, 1052, 1053, 1054, 1055, 1056
 2017, 2018, 2019, 2020, 2021, 2022, 2023, 2024, 2025, 2026, 2027, 2028, 2029, 2030, 2031, 2032
 2033, 2034, 2035, 2036, 2037, 2038, 2039, 2040, 2041, 2042, 2043, 2044, 2045, 2046, 2047, 2048
 2049, 2050, 2051, 2052, 2053, 2054, 2055, 2056, 2057, 2058, 2059, 2060, 2061, 2062, 2063, 2064
 2065, 2066, 2067, 2068, 2069, 2070, 2071, 2072, 2073, 2074, 2075, 2076, 2077, 2078, 2079, 2080
 2081, 2082, 2083, 2084, 2085, 2086, 2087, 2088, 2089, 2090, 2091, 2092, 2093, 2094, 2095, 2096
 2097, 2098, 2099, 2100, 2101, 2102, 2103, 2104, 2105, 2106, 2107, 2108, 2109, 2110, 2111, 2112
 3073, 3074, 3075, 3076, 3077, 3078, 3079, 3080, 3081, 3082, 3083, 3084, 3085, 3086, 3087, 3088
 3089, 3090, 3091, 3092, 3093, 3094, 3095, 3096, 3097, 3098, 3099, 3100, 3101, 3102, 3103, 3104
 3105, 3106, 3107, 3108, 3109, 3110, 3111, 3112, 3113, 3114, 3115, 3116, 3117, 3118, 3119, 3120
 3121, 3122, 3123, 3124, 3125, 3126, 3127, 3128, 3129, 3130, 3131, 3132, 3133, 3134, 3135, 3136
 3137, 3138, 3139, 3140, 3141, 3142, 3143, 3144, 3145, 3146, 3147, 3148, 3149, 3150, 3151, 3152
 3153, 3154, 3155, 3156, 3157, 3158, 3159, 3160, 3161, 3162, 3163, 3164, 3165, 3166, 3167, 3168
 4129, 4130, 4131, 4132, 4133, 4134, 4135, 4136, 4137, 4138, 4139, 4140, 4141, 4142, 4143, 4144
 4145, 4146, 4147, 4148, 4149, 4150, 4151, 4152, 4153, 4154, 4155, 4156, 4157, 4158, 4159, 4160
** ... 4 like lines cut
*Surface, type=ELEMENT, name=_PickedSurf237, internal
__PickedSurf237_S2, S2
*Rigid Body, ref node=bottom-rigid-1.bottom-rigid-RefPt_, elset=bottom-rigid-1.bottom-rigid
*Rigid Body, ref node=top-rigid-1.top-rigid-RefPt_, elset=top-rigid-1.top-rigid
** Constraint: Constraint-1
*Tie, name=Constraint-1, adjust=yes
_PickedSurf188, _PickedSurf187
** Constraint: Constraint-2
*Tie, name=Constraint-2, adjust=yes
_PickedSurf190, _PickedSurf189
** Constraint: Constraint-3
*Tie, name=Constraint-3, adjust=yes
_PickedSurf192, _PickedSurf191
** Constraint: Constraint-4
*Tie, name=Constraint-4, adjust=yes
_PickedSurf194, _PickedSurf193
** Constraint: Constraint-5
*Tie, name=Constraint-5, adjust=yes
_PickedSurf200, _PickedSurf199
** Constraint: Constraint-6
*Tie, name=Constraint-6, adjust=yes
_PickedSurf223, _PickedSurf222
** Constraint: Constraint-7
*Tie, name=Constraint-7, adjust=yes
_PickedSurf235, _PickedSurf234
** Constraint: Constraint-8
*Tie, name=Constraint-8, adjust=yes
_PickedSurf237, _PickedSurf236
*End Assembly
*Amplitude, name=Amp-1
             0.,              0.,             60.,           0.003,            120.,           0.006,            180.,           0.009
           240.,           0.012,            300.,           0.015,            360.,           0.018,            420.,           0.021
           480.,           0.024,            540.,           0.027,            600.,            0.03,            660.,           0.033
           720.,           0.036,            780.,           0.039,            840.,           0.042,            900.,           0.045
           960.,           0.048,           1020.,           0.051,           1080.,           0.054,           1140.,           0.057
          1200.,            0.06,           1260.,           0.063,           1320.,           0.066,           1380.,           0.069
          1440.,           0.072,           1500.,           0.075
** 
** MATERIALS
** 
*Material, name=gentle#3
*Density
 2.35e-06,
*Elastic
48000., 0.2
*Concrete Damaged Plasticity
30.,   0.66,   1.15,    0.1, 0.0001
*Concrete Compression Hardening
  40.,          0.
 45.7, 0.000136039
 51.4, 0.000307157
 57.1, 0.000496433
 62.9,  0.00071127
 68.6, 0.000966107
 74.3,  0.00129822
  80.,      0.0021
 74.3,  0.00290178
 68.6,  0.00323389
 62.9,  0.00348873
 57.1,  0.00370357
 51.4,  0.00389284
 45.7,  0.00406396
  40.,  0.00422132
 34.3,  0.00436779
  16.,  0.00478328
 6.86,      0.0111
   0.,      0.0191
*Concrete Tension Stiffening, type=DISPLACEMENT
5.,    0.
0., 0.028
*Material, name=steel
*Density
 7.89e-06,
*Elastic
209000., 0.269
** ----------------------------------------------------------------
** 
** STEP: Step-1
** 
*Step, name=Step-1, nlgeom=NO, inc=10000
*Static
0.1, 1500., 0.0001, 1.
** 
** BOUNDARY CONDITIONS
** 
** Name: BC-1 Type: Displacement/Rotation
*Boundary, amplitude=Amp-1
_PickedSet238, 1, 1
_PickedSet238, 2, 2, 1.
_PickedSet238, 3, 3
** Name: BC-2 Type: Displacement/Rotation
*Boundary
_PickedSet239, 1, 1
_PickedSet239, 2, 2
_PickedSet239, 3, 3
** 
** OUTPUT REQUESTS
** 
*Restart, write, frequency=0
** 
** FIELD OUTPUT: bottom-224mm
** 
*Output, field, frequency=3
*Node Output, nset=bottom-224mm
U, 
** 
** FIELD OUTPUT: bottom-4mm
** 
*Node Output, nset=bottom-4mm
U, 
** 
** FIELD OUTPUT: bottom-50mm
** 
*Node Output, nset=bottom-50mm
U, 
** 
** FIELD OUTPUT: top-224mm
** 
*Node Output, nset=top-224mm
U, 
** 
** FIELD OUTPUT: top-4mm
** 
*Node Output, nset=top-4mm
U, 
** 
** FIELD OUTPUT: top-50mm
** 
*Node Output, nset=top-50mm
U, 
** 
** FIELD OUTPUT: F-Output-1
** 
*Output, field, variable=PRESELECT, frequency=3
*Output, history, frequency=0
*End Step
