*Heading
** Job name: hinged#3gentle Model name: hinged material 3 gentle
** Generated by: Abaqus/CAE 2023
*Preprint, echo=NO, model=NO, history=NO, contact=NO
**
** PARTS
**
*Part, name=bottom
*Node
      1,           0.,          73.,         -50.
      2,           0.,          73.,           0.
      3,          50.,          73.,           0.
      4,           0.,          50.,           0.
      5,           0.,          50.,         -50.
      6,          50.,          50.,           0.
      7,         -50.,          73.,           0.
      8,         -50.,          50.,           0.
      9,           0.,          73.,          50.
     10,           0.,          50.,          50.
     11,           0.,          73.,  -44.9213905
     12,           0.,          73.,   -40.000267
     13,           0.,          73.,  -35.0619125
     14,           0.,          73.,  -30.1100845
     15,           0.,          73.,   -25.130991
     16,           0.,          73.,  -20.1258621
     17,           0.,          73.,  -15.1060019
     18,           0.,          73.,  -10.0756779
     19,           0.,          73.,  -5.03862953
     20,   5.03854561,          73.,           0.
** ... 2482 like lines cut
*Element, type=C3D8R
  1,  231,  239,   37,   36, 1247, 1255,  387,  388
  2,  239,  240,   38,   37, 1255, 1256,  386,  387
  3,  240,  241,   39,   38, 1256, 1257,  385,  386
  4,  241,  242,   40,   39, 1257, 1258,  384,  385
  5,  242,  243,   41,   40, 1258, 1259,  383,  384
  6,  243,  244,   42,   41, 1259, 1260,  382,  383
  7,  244,  245,   43,   42, 1260, 1261,  381,  382
  8,  245,   11,    1,   43, 1261,  449,   47,  381
  9,  223,  230,  239,  231, 1239, 1246, 1255, 1247
 10,  230,  229,  240,  239, 1246, 1245, 1256, 1255
 11,  229,  228,  241,  240, 1245, 1244, 1257, 1256
 12,  228,  227,  242,  241, 1244, 1243, 1258, 1257
 13,  227,  226,  243,  242, 1243, 1242, 1259, 1258
 14,  226,  225,  244,  243, 1242, 1241, 1260, 1259
 15,  225,  224,  245,  244, 1241, 1240, 1261, 1260
 16,  224,   12,   11,  245, 1240,  448,  449, 1261
 17,  224,  246,   13,   12, 1240, 1262,  447,  448
 18,  246,  247,   14,   13, 1262, 1263,  446,  447
 19,  247,  248,   15,   14, 1263, 1264,  445,  446
 20,  248,  249,   16,   15, 1264, 1265,  444,  445
** ... 1900 like lines cut
*Nset, nset=_PickedSet18, internal, generate
    1,  2502,     1
*Elset, elset=_PickedSet18, internal, generate
    1,  1920,     1
** Section: specimen
*Solid Section, elset=_PickedSet18, material=material3-gentle
,
*End Part
**  
*Part, name="bottom plate"
*Node
      1,           0.,          50.,           0.
      2,           0.,          50.,         -50.
      3,         -50.,          50.,           0.
      4,           0.,          -5.,         -50.
      5,           0.,          -5.,           0.
      6,         -50.,          -5.,           0.
      7,          50.,          50.,           0.
      8,          50.,          -5.,           0.
      9,           0.,          50.,          50.
     10,           0.,          -5.,          50.
     11,           0.,          50.,  -5.03862953
     12,           0.,          50.,  -10.0756779
     13,           0.,          50.,  -15.1060019
     14,           0.,          50.,  -20.1258621
     15,           0.,          50.,   -25.130991
     16,           0.,          50.,  -30.1100845
     17,           0.,          50.,  -35.0619125
     18,           0.,          50.,   -40.000267
     19,           0.,          50.,  -44.9213905
     20,  -5.03785467,          50.,  -49.7455521
** ... 4984 like lines cut
*Element, type=C3D8R
   1,  267,  269,   37,   36, 1859, 1861,  417,  418
   2,  269,  270,   38,   37, 1861, 1862,  416,  417
   3,  270,  271,   39,   38, 1862, 1863,  415,  416
   4,  271,  272,   40,   39, 1863, 1864,  414,  415
   5,  272,  273,   41,   40, 1864, 1865,  413,  414
   6,  273,  274,   42,   41, 1865, 1866,  412,  413
   7,  274,  275,   43,   42, 1866, 1867,  411,  412
   8,  275,   11,    1,   43, 1867,  509,   53,  411
   9,  266,  276,  269,  267, 1858, 1868, 1861, 1859
  10,  276,  277,  270,  269, 1868, 1869, 1862, 1861
  11,  277,  278,  271,  270, 1869, 1870, 1863, 1862
  12,  278,  279,  272,  271, 1870, 1871, 1864, 1863
  13,  279,  280,  273,  272, 1871, 1872, 1865, 1864
  14,  280,  281,  274,  273, 1872, 1873, 1866, 1865
  15,  281,  282,  275,  274, 1873, 1874, 1867, 1866
  16,  282,   12,   11,  275, 1874,  508,  509, 1867
  17,  265,  283,  276,  266, 1857, 1875, 1868, 1858
  18,  283,  284,  277,  276, 1875, 1876, 1869, 1868
  19,  284,  285,  278,  277, 1876, 1877, 1870, 1869
  20,  285,  286,  279,  278, 1877, 1878, 1871, 1870
** ... 4204 like lines cut
*Nset, nset=_PickedSet7, internal, generate
    1,  5004,     1
*Elset, elset=_PickedSet7, internal, generate
    1,  4224,     1
** Section: plate
*Solid Section, elset=_PickedSet7, material=steel
,
*End Part
**  
*Part, name="bottom rigid"
*Node
      1,          50.,          -5.,           0.
      2,          50.,         -10.,           0.
      3,   49.7298317,          -5.,   5.19075489
      4,   48.9157524,          -5.,   10.3561096
      5,   47.5863495,          -5.,   15.3472967
      6,   45.8185883,          -5.,   20.0164204
      7,   43.7599907,          -5.,   24.1880817
      8,     41.37043,          -5.,   28.0800209
      9,   38.7658501,          -5.,   31.5786152
     10,   35.8801079,          -5.,   34.8226624
     11,   32.5409393,          -5.,   37.9616547
     12,   28.7105808,          -5.,   40.9353485
     13,   24.3170719,          -5.,   43.6884422
     14,    19.386713,          -5.,    46.088562
     15,   14.5547638,          -5.,   47.8347054
     16,   9.76695538,          -5.,   49.0367889
     17,   4.63161421,          -5.,   49.7850189
     18, -0.602070808,          -5.,    49.996376
     19,  -5.77621365,          -5.,   49.6652336
     20,  -10.9356966,          -5.,   48.7894516
** ... 800 like lines cut
*Element, type=R3D4
  1,  60,  59, 185, 179
  2,  59,  58, 186, 185
  3,  58,  57, 187, 186
  4,  57,  56, 188, 187
  5,  56,  55, 189, 188
  6,  55,  54, 190, 189
  7,  54,  53, 191, 190
  8,  53,  52, 192, 191
  9,  52,  51, 193, 192
 10,  51,  50, 194, 193
 11,  50,  49, 195, 194
 12,  49,  48, 130, 195
 13, 179, 185, 178, 167
 14, 185, 186, 177, 178
 15, 186, 187, 176, 177
 16, 187, 188, 175, 176
 17, 188, 189, 174, 175
 18, 189, 190, 173, 174
 19, 190, 191, 172, 173
 20, 191, 192, 171, 172
** ... 798 like lines cut
*Node
    821,           0.,         -10., 3.06161689e-15
*Nset, nset="bottom rigid-RefPt_", internal
821, 
*Nset, nset=_PickedSet4, internal
 821,
*Elset, elset="bottom rigid", generate
   1,  818,    1
*Element, type=MASS, elset=_PickedSet4_Inertia-1_
819, 821
*Mass, elset=_PickedSet4_Inertia-1_
1., 
*End Part
**  
*Part, name="notch bottom"
*Node
      1,           0.,          73.,           0.
      2,           0.,          73.,         -50.
      3,          50.,          73.,           0.
      4,           0.,         73.5,           0.
      5,          41.,         73.5,           0.
      6,           0.,         73.5,         -41.
      7,         -41.,         73.5,           0.
      8,         -50.,          73.,           0.
      9,           0.,         73.5,          41.
     10,           0.,          73.,          50.
     11,           0.,          73.,          -5.
     12,           0.,          73.,         -10.
     13,           0.,          73.,         -15.
     14,           0.,          73.,         -20.
     15,           0.,          73.,         -25.
     16,           0.,          73.,         -30.
     17,           0.,          73.,         -35.
     18,           0.,          73.,         -40.
     19,           0.,          73.,         -45.
     20,   5.59822369,          73.,  -49.6856117
** ... 3949 like lines cut
*Element, type=C3D10
  1,  204,   42,  269,   41,  692,  691,  690,  694,  693,  695
  2,   12,  269,   56,  201,  698,  697,  696,  700,  699,  701
  3,  269,   41,  201,  204,  695,  702,  699,  690,  694,  703
  4,  686,  201,   11,   56,  706,  705,  704,  707,  701,  708
  5,   11,    4,   41,  686,  711,  710,  709,  704,  712,  713
  6,   41,   42,  269,  686,  693,  691,  695,  713,  714,  715
  7,  686,   56,    4,   42,  707,  716,  712,  714,  717,  718
  8,  305,  219,   61,  194,  721,  720,  719,  723,  722,  724
  9,   56,  201,   11,   12,  701,  705,  708,  696,  700,  725
 10,   62,  194,  190,  304,  728,  727,  726,  730,  729,  731
 11,  304,   62,  194,   61,  730,  728,  729,  733,  732,  724
 12,  304,  190,  303,   26,  731,  735,  734,  737,  736,  738
 13,  303,  190,   62,   63,  735,  726,  739,  741,  740,  742
 14,  193,   63,  190,  303,  744,  740,  743,  745,  741,  735
 15,  183,  306,   29,   28,  748,  747,  746,  750,  749,  751
 16,   64,  193,  189,  302,  754,  753,  752,  756,  755,  757
 17,  193,  303,   26,   25,  745,  738,  758,  760,  759,  761
 18,  303,  302,   25,  193,  763,  762,  759,  745,  755,  760
 19,  303,  302,  193,   63,  763,  755,  745,  741,  764,  744
 20,  266,  197,   38,  198,  767,  766,  765,  769,  768,  770
** ... 1889 like lines cut
*Nset, nset=_PickedSet45, internal, generate
    1,  3969,     1
*Elset, elset=_PickedSet45, internal, generate
    1,  1909,     1
** Section: specimen
*Solid Section, elset=_PickedSet45, material=material3-gentle
,
*End Part
**  
*Part, name="notch middle"
*Node
      1,           0.,         76.5,          41.
      2,           0.,         76.5,           0.
      3,         -41.,         76.5,           0.
      4,           0.,         73.5,           0.
      5,           0.,         73.5,          41.
      6,         -41.,         73.5,           0.
      7,          41.,         76.5,           0.
      8,          41.,         73.5,           0.
      9,           0.,         76.5,         -41.
     10,           0.,         73.5,         -41.
     11,           0.,         76.5,   36.3398018
     12,           0.,         76.5,   31.8763504
     13,           0.,         76.5,   27.3961124
     14,           0.,         76.5,   22.8970776
     15,           0.,         76.5,   18.3614864
     16,           0.,         76.5,   13.7918568
     17,           0.,         76.5,   9.20321083
     18,           0.,         76.5,   4.60296822
     19,  -5.15970898,         76.5,           0.
     20,  -10.3162661,         76.5,           0.
** ... 578 like lines cut
*Element, type=C3D8R
 1, 173, 180,  33,  32, 227, 234,  50,  51
 2, 180, 181,  34,  33, 234, 235,  49,  50
 3, 181, 182,  35,  34, 235, 236,  48,  49
 4, 182, 183,  36,  35, 236, 237,  47,  48
 5, 183, 184,  37,  36, 237, 238,  46,  47
 6, 184,  11,   1,  37, 238,  45,   5,  46
 7, 167, 172, 180, 173, 221, 226, 234, 227
 8, 172, 171, 181, 180, 226, 225, 235, 234
 9, 171, 170, 182, 181, 225, 224, 236, 235
10, 170, 169, 183, 182, 224, 223, 237, 236
11, 169, 168, 184, 183, 223, 222, 238, 237
12, 168,  12,  11, 184, 222,  44,  45, 238
13, 168, 185,  13,  12, 222, 239,  43,  44
14, 185, 186,  14,  13, 239, 240,  42,  43
15, 186, 187,  15,  14, 240, 241,  41,  42
16, 187, 188,  16,  15, 241, 242,  40,  41
17, 188, 189,  17,  16, 242, 243,  39,  40
18, 189, 190,  18,  17, 243, 244,  38,  39
19, 190,  19,   2,  18, 244,  64,   4,  38
20, 169, 191, 185, 168, 223, 245, 239, 222
** ... 252 like lines cut
*Nset, nset=_PickedSet71, internal, generate
   1,  598,    1
*Elset, elset=_PickedSet71, internal, generate
   1,  272,    1
** Section: specimen
*Solid Section, elset=_PickedSet71, material=material3-gentle
,
*End Part
**  
*Part, name="notch top"
*Node
      1,           0.,          77.,           0.
      2,           0.,          77.,          50.
      3,          50.,          77.,           0.
      4,           0.,         76.5,          41.
      5,          41.,         76.5,           0.
      6,           0.,         76.5,           0.
      7,         -41.,         76.5,           0.
      8,         -50.,          77.,           0.
      9,           0.,          77.,         -50.
     10,           0.,         76.5,         -41.
     11,           0.,          77.,           5.
     12,           0.,          77.,          10.
     13,           0.,          77.,          15.
     14,           0.,          77.,          20.
     15,           0.,          77.,          25.
     16,           0.,          77.,          30.
     17,           0.,          77.,          35.
     18,           0.,          77.,          40.
     19,           0.,          77.,          45.
     20,   5.59822369,          77.,   49.6856117
** ... 3944 like lines cut
*Element, type=C3D10
  1,  305,  306,  237,  307,  691,  690,  689,  693,  692,  694
  2,  305,  237,  306,  241,  689,  690,  691,  696,  695,  697
  3,  305,  247,  241,  239,  699,  698,  696,  701,  700,  702
  4,   54,  217,  213,  267,  705,  704,  703,  707,  706,  708
  5,  205,   54,  217,  213,  710,  705,  709,  711,  703,  704
  6,  267,  284,  266,  233,  714,  713,  712,  716,  715,  717
  7,   70,  183,  192,   35,  720,  719,  718,  722,  721,  723
  8,   69,  183,   70,   35,  725,  720,  724,  726,  721,  722
  9,  265,  183,  192,   70,  728,  719,  727,  729,  720,  718
 10,   69,  297,  183,  280,  731,  730,  725,  733,  732,  734
 11,   43,  248,  186,   19,  737,  736,  735,  739,  738,  740
 12,  297,  265,  183,  284,  741,  728,  730,  743,  742,  744
 13,  288,  231,  264,  285,  747,  746,  745,  749,  748,  750
 14,  288,  206,  283,  234,  753,  752,  751,  755,  754,  756
 15,  303,  288,  236,  296,  759,  758,  757,  761,  760,  762
 16,  288,  206,  296,  283,  753,  763,  760,  751,  752,  764
 17,  304,  247,  309,  305,  767,  766,  765,  768,  699,  769
 18,  288,  236,  296,  206,  758,  762,  760,  753,  770,  763
 19,  207,  298,  303,  296,  773,  772,  771,  775,  774,  761
 20,  297,   69,  183,   70,  731,  725,  730,  776,  724,  720
** ... 1886 like lines cut
*Nset, nset=_PickedSet45, internal, generate
    1,  3964,     1
*Elset, elset=_PickedSet45, internal, generate
    1,  1906,     1
** Section: specimen
*Solid Section, elset=_PickedSet45, material=material3-gentle
,
*End Part
**  
*Part, name=top
*Node
      1,           0.,         100.,           0.
      2,           0.,         100.,          50.
      3,          50.,         100.,           0.
      4,           0.,          77.,          50.
      5,           0.,          77.,           0.
      6,          50.,          77.,           0.
      7,         -50.,         100.,           0.
      8,         -50.,          77.,           0.
      9,           0.,         100.,         -50.
     10,           0.,          77.,         -50.
     11,           0.,         100.,   5.03862953
     12,           0.,         100.,   10.0756779
     13,           0.,         100.,   15.1060019
     14,           0.,         100.,   20.1258621
     15,           0.,         100.,    25.130991
     16,           0.,         100.,   30.1100845
     17,           0.,         100.,   35.0619125
     18,           0.,         100.,    40.000267
     19,           0.,         100.,   44.9213905
     20,   5.03785467,         100.,   49.7455521
** ... 2482 like lines cut
*Element, type=C3D8R
  1,  237,  239,   37,   36, 1253, 1255,  479,  478
  2,  239,  240,   38,   37, 1255, 1256,  480,  479
  3,  240,  241,   39,   38, 1256, 1257,  481,  480
  4,  241,  242,   40,   39, 1257, 1258,  482,  481
  5,  242,  243,   41,   40, 1258, 1259,  483,  482
  6,  243,  244,   42,   41, 1259, 1260,  484,  483
  7,  244,  245,   43,   42, 1260, 1261,  485,  484
  8,  245,   11,    1,   43, 1261,  449,   52,  485
  9,  236,  246,  239,  237, 1252, 1262, 1255, 1253
 10,  246,  247,  240,  239, 1262, 1263, 1256, 1255
 11,  247,  248,  241,  240, 1263, 1264, 1257, 1256
 12,  248,  249,  242,  241, 1264, 1265, 1258, 1257
 13,  249,  250,  243,  242, 1265, 1266, 1259, 1258
 14,  250,  251,  244,  243, 1266, 1267, 1260, 1259
 15,  251,  252,  245,  244, 1267, 1268, 1261, 1260
 16,  252,   12,   11,  245, 1268,  448,  449, 1261
 17,  235,  253,  246,  236, 1251, 1269, 1262, 1252
 18,  253,  254,  247,  246, 1269, 1270, 1263, 1262
 19,  254,  255,  248,  247, 1270, 1271, 1264, 1263
 20,  255,  256,  249,  248, 1271, 1272, 1265, 1264
** ... 1900 like lines cut
*Nset, nset=_PickedSet13, internal, generate
    1,  2502,     1
*Elset, elset=_PickedSet13, internal, generate
    1,  1920,     1
** Section: specimen
*Solid Section, elset=_PickedSet13, material=material3-gentle
,
*End Part
**  
*Part, name="top plate"
*Node
      1,           0.,         155.,          50.
      2,           0.,         155.,           0.
      3,         -50.,         155.,           0.
      4,           0.,         100.,           0.
      5,           0.,         100.,          50.
      6,         -50.,         100.,           0.
      7,          50.,         155.,           0.
      8,          50.,         100.,           0.
      9,           0.,         155.,         -50.
     10,           0.,         100.,         -50.
     11,           0.,         155.,   44.9213905
     12,           0.,         155.,    40.000267
     13,           0.,         155.,   35.0619125
     14,           0.,         155.,   30.1100845
     15,           0.,         155.,    25.130991
     16,           0.,         155.,   20.1258621
     17,           0.,         155.,   15.1060019
     18,           0.,         155.,   10.0756779
     19,           0.,         155.,   5.03862953
     20,  -5.03854561,         155.,           0.
** ... 4984 like lines cut
*Element, type=C3D8R
   1,  261,  269,   37,   36, 1853, 1861,  417,  418
   2,  269,  270,   38,   37, 1861, 1862,  416,  417
   3,  270,  271,   39,   38, 1862, 1863,  415,  416
   4,  271,  272,   40,   39, 1863, 1864,  414,  415
   5,  272,  273,   41,   40, 1864, 1865,  413,  414
   6,  273,  274,   42,   41, 1865, 1866,  412,  413
   7,  274,  275,   43,   42, 1866, 1867,  411,  412
   8,  275,   11,    1,   43, 1867,  569,   53,  411
   9,  253,  260,  269,  261, 1845, 1852, 1861, 1853
  10,  260,  259,  270,  269, 1852, 1851, 1862, 1861
  11,  259,  258,  271,  270, 1851, 1850, 1863, 1862
  12,  258,  257,  272,  271, 1850, 1849, 1864, 1863
  13,  257,  256,  273,  272, 1849, 1848, 1865, 1864
  14,  256,  255,  274,  273, 1848, 1847, 1866, 1865
  15,  255,  254,  275,  274, 1847, 1846, 1867, 1866
  16,  254,   12,   11,  275, 1846,  568,  569, 1867
  17,  254,  276,   13,   12, 1846, 1868,  567,  568
  18,  276,  277,   14,   13, 1868, 1869,  566,  567
  19,  277,  278,   15,   14, 1869, 1870,  565,  566
  20,  278,  279,   16,   15, 1870, 1871,  564,  565
** ... 4204 like lines cut
*Nset, nset=_PickedSet2, internal, generate
    1,  5004,     1
*Elset, elset=_PickedSet2, internal, generate
    1,  4224,     1
** Section: plate
*Solid Section, elset=_PickedSet2, material=steel
,
*End Part
**  
*Part, name="top rigid"
*Node
      1,          50.,         160.,           0.
      2,          50.,         155.,           0.
      3,   49.7298317,         160.,   5.19075489
      4,   48.9157524,         160.,   10.3561096
      5,   47.5863495,         160.,   15.3472967
      6,   45.8185883,         160.,   20.0164204
      7,   43.7599907,         160.,   24.1880817
      8,     41.37043,         160.,   28.0800209
      9,   38.7658501,         160.,   31.5786152
     10,   35.8801079,         160.,   34.8226624
     11,   32.5409393,         160.,   37.9616547
     12,   28.7105808,         160.,   40.9353485
     13,   24.3170719,         160.,   43.6884422
     14,    19.386713,         160.,    46.088562
     15,   14.5547638,         160.,   47.8347054
     16,   9.76695538,         160.,   49.0367889
     17,   4.63161421,         160.,   49.7850189
     18, -0.602070808,         160.,    49.996376
     19,  -5.77621365,         160.,   49.6652336
     20,  -10.9356966,         160.,   48.7894516
** ... 800 like lines cut
*Element, type=R3D4
  1,  60,  59, 185, 179
  2,  59,  58, 186, 185
  3,  58,  57, 187, 186
  4,  57,  56, 188, 187
  5,  56,  55, 189, 188
  6,  55,  54, 190, 189
  7,  54,  53, 191, 190
  8,  53,  52, 192, 191
  9,  52,  51, 193, 192
 10,  51,  50, 194, 193
 11,  50,  49, 195, 194
 12,  49,  48, 130, 195
 13, 179, 185, 178, 167
 14, 185, 186, 177, 178
 15, 186, 187, 176, 177
 16, 187, 188, 175, 176
 17, 188, 189, 174, 175
 18, 189, 190, 173, 174
 19, 190, 191, 172, 173
 20, 191, 192, 171, 172
** ... 798 like lines cut
*Node
    821,           3.,         160., 3.06161689e-15
*Nset, nset="top rigid-RefPt_", internal
821, 
*Nset, nset=_PickedSet5, internal
 821,
*Elset, elset="top rigid", generate
   1,  818,    1
*Element, type=MASS, elset=_PickedSet5_Inertia-1_
819, 821
*Mass, elset=_PickedSet5_Inertia-1_
1., 
*End Part
**  
**
** ASSEMBLY
**
*Assembly, name=Assembly
**  
*Instance, name=bottom-1, part=bottom
*End Instance
**  
*Instance, name="notch bottom-1", part="notch bottom"
*End Instance
**  
*Instance, name="notch middle-1", part="notch middle"
*End Instance
**  
*Instance, name="notch top-1", part="notch top"
*End Instance
**  
*Instance, name=top-1, part=top
*End Instance
**  
*Instance, name="bottom plate-1", part="bottom plate"
*End Instance
**  
*Instance, name="top plate-1", part="top plate"
*End Instance
**  
*Instance, name="bottom rigid-1", part="bottom rigid"
*End Instance
**  
*Instance, name="top rigid-1", part="top rigid"
*End Instance
**  
*Nset, nset=bottom-4mm, instance=bottom-1
   1,   3,   7,   9,  29,  30,  31,  32,  33,  34,  35,  36,  37,  38,  39,  40
  41,  42,  43,  89,  90,  91,  92,  93,  94,  95,  96,  97,  98,  99, 100, 101
 102, 103, 150, 151, 152, 153, 154, 155, 156, 157, 158, 159, 160, 161, 162, 163
 164, 193, 194, 195, 196, 197, 198, 199, 200, 201, 202, 203, 204, 205, 206, 207
*Nset, nset=bottom-50mm, instance=bottom-1
   5,   6,   8,  10,  65,  66,  67,  68,  69,  70,  71,  72,  73,  74,  75,  76
  77,  78,  79, 126, 127, 128, 129, 130, 131, 132, 133, 134, 135, 136, 137, 138
 139, 140, 178, 179, 180, 181, 182, 183, 184, 185, 186, 187, 188, 189, 190, 191
 192, 208, 209, 210, 211, 212, 213, 214, 215, 216, 217, 218, 219, 220, 221, 222
*Nset, nset=bottom-224mm, instance=bottom-1
   46,   49,  115,  166,  396,  397,  398,  399,  400,  401,  402,  403,  404,  405,  406,  407
  408,  409,  410,  686,  687,  688,  689,  690,  691,  692,  693,  694,  695,  696,  697,  698
  699,  700,  940,  941,  942,  943,  944,  945,  946,  947,  948,  949,  950,  951,  952,  953
  954, 1194, 1195, 1196, 1197, 1198, 1199, 1200, 1201, 1202, 1203, 1204, 1205, 1206, 1207, 1208
*Nset, nset=top-4mm, instance=top-1
   4,   6,   8,  10,  74,  75,  76,  77,  78,  79,  80,  81,  82,  83,  84,  85
  86,  87,  88, 117, 118, 119, 120, 121, 122, 123, 124, 125, 126, 127, 128, 129
 130, 131, 178, 179, 180, 181, 182, 183, 184, 185, 186, 187, 188, 189, 190, 191
 192, 208, 209, 210, 211, 212, 213, 214, 215, 216, 217, 218, 219, 220, 221, 222
*Nset, nset=top-50mm, instance="top plate-1"
   5,   6,   8,  10,  83,  84,  85,  86,  87,  88,  89,  90,  91,  92,  93,  94
  95,  96,  97, 150, 151, 152, 153, 154, 155, 156, 157, 158, 159, 160, 161, 162
 163, 164, 208, 209, 210, 211, 212, 213, 214, 215, 216, 217, 218, 219, 220, 221
 222, 238, 239, 240, 241, 242, 243, 244, 245, 246, 247, 248, 249, 250, 251, 252
*Nset, nset=top-224mm, instance=top-1
   46,   49,  115,  167,  411,  412,  413,  414,  415,  416,  417,  418,  419,  420,  421,  422
  423,  424,  425,  701,  702,  703,  704,  705,  706,  707,  708,  709,  710,  711,  712,  713
  714,  715,  955,  956,  957,  958,  959,  960,  961,  962,  963,  964,  965,  966,  967,  968
  969, 1209, 1210, 1211, 1212, 1213, 1214, 1215, 1216, 1217, 1218, 1219, 1220, 1221, 1222, 1223
*Nset, nset=_PickedSet358, internal, instance="top rigid-1"
 821,
*Nset, nset=_PickedSet359, internal, instance="bottom rigid-1"
 821,
*Elset, elset=__PickedSurf272_S1, internal, instance=bottom-1
    1,    2,    3,    4,    5,    6,    7,    8,    9,   10,   11,   12,   13,   14,   15,   16
   17,   18,   19,   20,   21,   22,   23,   24,   25,   26,   27,   28,   29,   30,   31,   32
   33,   34,   35,   36,   37,   38,   39,   40,   41,   42,   43,   44,   45,   46,   47,   48
   49,   50,   51,   52,   53,   54,   55,   56,   57,   58,   59,   60,   61,   62,   63,   64
   65,   66,   67,   68,   69,   70,   71,   72,   73,   74,   75,   76,   77,   78,   79,   80
   81,   82,   83,   84,   85,   86,   87,   88,   89,   90,   91,   92,   93,   94,   95,   96
  481,  482,  483,  484,  485,  486,  487,  488,  489,  490,  491,  492,  493,  494,  495,  496
  497,  498,  499,  500,  501,  502,  503,  504,  505,  506,  507,  508,  509,  510,  511,  512
  513,  514,  515,  516,  517,  518,  519,  520,  521,  522,  523,  524,  525,  526,  527,  528
  529,  530,  531,  532,  533,  534,  535,  536,  537,  538,  539,  540,  541,  542,  543,  544
  545,  546,  547,  548,  549,  550,  551,  552,  553,  554,  555,  556,  557,  558,  559,  560
  561,  562,  563,  564,  565,  566,  567,  568,  569,  570,  571,  572,  573,  574,  575,  576
  961,  962,  963,  964,  965,  966,  967,  968,  969,  970,  971,  972,  973,  974,  975,  976
  977,  978,  979,  980,  981,  982,  983,  984,  985,  986,  987,  988,  989,  990,  991,  992
  993,  994,  995,  996,  997,  998,  999, 1000, 1001, 1002, 1003, 1004, 1005, 1006, 1007, 1008
 1009, 1010, 1011, 1012, 1013, 1014, 1015, 1016, 1017, 1018, 1019, 1020, 1021, 1022, 1023, 1024
 1025, 1026, 1027, 1028, 1029, 1030, 1031, 1032, 1033, 1034, 1035, 1036, 1037, 1038, 1039, 1040
 1041, 1042, 1043, 1044, 1045, 1046, 1047, 1048, 1049, 1050, 1051, 1052, 1053, 1054, 1055, 1056
 1441, 1442, 1443, 1444, 1445, 1446, 1447, 1448, 1449, 1450, 1451, 1452, 1453, 1454, 1455, 1456
 1457, 1458, 1459, 1460, 1461, 1462, 1463, 1464, 1465, 1466, 1467, 1468, 1469, 1470, 1471, 1472
** ... 4 like lines cut
*Surface, type=ELEMENT, name=_PickedSurf272, internal
__PickedSurf272_S1, S1
*Elset, elset=__PickedSurf273_S2, internal, instance="notch bottom-1"
   57,  104,  214,  221,  285,  295,  403,  415,  442,  444,  493,  525,  529,  536,  545,  546
  548,  559,  561,  568,  578,  580,  594,  596,  597,  608,  616,  620,  623,  631,  633,  634
  641,  648,  654,  669,  671,  681,  685,  686,  690,  693,  719,  722,  731,  732,  737,  758
  760,  766,  767,  769,  770,  773,  804,  811,  832,  847,  855,  894,  901,  914,  917,  933
  944,  961,  966,  967,  983,  989,  991,  996, 1008, 1011, 1026, 1029, 1031, 1035, 1041, 1045
 1050, 1053, 1056, 1064, 1070, 1077, 1079, 1080, 1084, 1088, 1089, 1090, 1092, 1114, 1118, 1120
 1123, 1128, 1130, 1140, 1142, 1152, 1153, 1169, 1173, 1174, 1222, 1225, 1233, 1261, 1264, 1289
 1290, 1292, 1299, 1302, 1307, 1310, 1341, 1351, 1357, 1359, 1363, 1373, 1382, 1383, 1386, 1395
 1423, 1435, 1439, 1448, 1452, 1453, 1458, 1466, 1468, 1478, 1481, 1488, 1489, 1492, 1493, 1496
 1506, 1507, 1516, 1520, 1521, 1522, 1523, 1524, 1545, 1556, 1571, 1576, 1580, 1584, 1595, 1599
 1604, 1605, 1612, 1614, 1617, 1624, 1638, 1641, 1650, 1653, 1679, 1702, 1704, 1713, 1728, 1730
 1759, 1771, 1774, 1775, 1776, 1783, 1787, 1790, 1814, 1825, 1834, 1853, 1865, 1877
*Elset, elset=__PickedSurf273_S1, internal, instance="notch bottom-1"
   29,   36,   37,   68,   91,  135,  170,  258,  292,  408,  411,  439,  491,  496,  524,  526
  541,  547,  551,  556,  557,  558,  564,  565,  571,  572,  575,  591,  595,  614,  615,  617
  625,  639,  645,  655,  656,  658,  691,  695,  704,  713,  720,  726,  735,  736,  741,  747
  762,  771,  780,  784,  786,  829,  840,  859,  863,  896,  913,  934,  970,  972,  973,  978
  993, 1002, 1015, 1019, 1032, 1040, 1051, 1054, 1059, 1073, 1076, 1095, 1100, 1104, 1105, 1125
 1149, 1156, 1165, 1166, 1195, 1198, 1204, 1207, 1208, 1211, 1215, 1220, 1223, 1240, 1242, 1243
 1252, 1259, 1271, 1276, 1285, 1300, 1343, 1360, 1376, 1391, 1397, 1398, 1412, 1432, 1436, 1461
 1463, 1467, 1470, 1491, 1503, 1504, 1508, 1515, 1527, 1528, 1531, 1534, 1555, 1557, 1558, 1560
 1567, 1587, 1588, 1613, 1615, 1639, 1649, 1656, 1665, 1675, 1680, 1681, 1691, 1695, 1697, 1701
 1707, 1710, 1742, 1747, 1748, 1753, 1758, 1762, 1780, 1791, 1797, 1799, 1809, 1824, 1839, 1847
 1858, 1861, 1869, 1873, 1878, 1885, 1894, 1905, 1906
*Elset, elset=__PickedSurf273_S3, internal, instance="notch bottom-1"
    3,    9,   20,   26,   59,   84,   89,   90,  107,  162,  168,  176,  179,  183,  184,  186
  188,  192,  199,  203,  212,  216,  229,  232,  241,  245,  247,  257,  264,  266,  273,  276
  277,  278,  280,  281,  293,  294,  296,  300,  305,  308,  316,  321,  322,  324,  327,  332
  333,  335,  339,  341,  342,  343,  345,  346,  347,  348,  349,  352,  355,  357,  358,  359
  360,  361,  364,  368,  370,  373,  375,  378,  380,  383,  385,  387,  389,  390,  392,  394
  395,  397,  399,  400,  404,  405,  406,  412,  413,  416,  417,  418,  420,  421,  422,  425
  426,  427,  428,  434,  435,  436,  443,  445,  446,  447,  448,  450,  451,  452,  453,  454
  456,  457,  458,  459,  462,  463,  464,  465,  468,  470,  471,  472,  474,  475,  476,  478
  479,  480,  481,  483,  484,  487,  490,  497,  500,  501,  514,  515,  519,  520,  521,  522
  618,  679,  689,  710,  723,  727,  728,  755,  756,  779,  783,  789,  797,  809,  818,  820
  860,  861,  888,  951,  955,  962, 1003, 1023, 1122, 1206, 1210, 1295, 1388, 1416, 1450, 1550
 1590, 1602, 1782, 1805, 1898
*Elset, elset=__PickedSurf273_S4, internal, instance="notch bottom-1"
   15,   17,   35,   42,   43,  210,  227,  362,  365,  393,  430,  449,  461,  488,  533,  537
  542,  554,  555,  566,  579,  609,  612,  619,  661,  664,  712,  716,  734,  739,  742,  744
  757,  785,  796,  824,  834,  838,  884,  907,  911,  925,  943,  959,  964,  969,  980,  986
  990,  992, 1004, 1025, 1028, 1075, 1102, 1103, 1109, 1113, 1117, 1129, 1155, 1178, 1182, 1188
 1192, 1194, 1199, 1205, 1212, 1224, 1235, 1239, 1263, 1268, 1278, 1281, 1287, 1319, 1324, 1328
 1334, 1339, 1399, 1401, 1402, 1414, 1428, 1460, 1475, 1499, 1533, 1536, 1541, 1547, 1551, 1564
 1566, 1568, 1578, 1589, 1594, 1596, 1601, 1603, 1607, 1629, 1644, 1652, 1662, 1670, 1677, 1720
 1726, 1744, 1757, 1779, 1785, 1796, 1807, 1819, 1867, 1889, 1903, 1908
*Surface, type=ELEMENT, name=_PickedSurf273, internal
__PickedSurf273_S2, S2
__PickedSurf273_S1, S1
__PickedSurf273_S4, S4
__PickedSurf273_S3, S3
*Elset, elset=__PickedSurf282_S2, internal, instance="notch middle-1", generate
   1,  272,    1
*Surface, type=ELEMENT, name=_PickedSurf282, internal
__PickedSurf282_S2, S2
*Elset, elset=__PickedSurf283_S3, internal, instance="notch bottom-1"
    7,   66,  112,  150,  161,  198,  267,  317,  325,  331,  509,  550,  567,  589,  601,  605
  635,  640,  643,  659,  662,  666,  667,  670,  672,  673,  699,  700,  702,  705,  706,  721
  743,  750,  751,  765,  776,  777,  792,  793,  795,  798,  799,  800,  801,  802,  803,  805
  806,  807,  812,  813,  815,  823,  828,  831,  833,  839,  841,  843,  844,  845,  846,  848
  849,  851,  852,  853,  857,  858,  867,  868,  869,  870,  872,  873,  874,  875,  877,  878
  881,  882,  883,  886,  887,  889,  890,  895,  897,  899,  904,  905,  906,  909,  912,  915
  918,  922,  923,  924,  928,  929,  930,  932,  937,  939,  941,  945,  949,  954,  956,  982
  995, 1013, 1014, 1017, 1020, 1022, 1033, 1047, 1052, 1061, 1062, 1063, 1083, 1087, 1096, 1097
 1098, 1099, 1101, 1107, 1137, 1147, 1158, 1167, 1168, 1171, 1175, 1183, 1185, 1187, 1189, 1191
 1201, 1213, 1227, 1232, 1234, 1238, 1247, 1248, 1250, 1251, 1255, 1256, 1258, 1283, 1294, 1297
 1301, 1303, 1312, 1313, 1315, 1316, 1317, 1321, 1322, 1325, 1333, 1337, 1338, 1345, 1350, 1352
 1354, 1355, 1364, 1365, 1366, 1368, 1370, 1377, 1378, 1384, 1385, 1389, 1392, 1393, 1394, 1396
 1403, 1405, 1407, 1408, 1409, 1410, 1413, 1415, 1419, 1421, 1422, 1424, 1425, 1426, 1427, 1429
 1430, 1431, 1433, 1434, 1440, 1444, 1473, 1485, 1517, 1519, 1538, 1540, 1542, 1543, 1552, 1572
 1581, 1586, 1597, 1600, 1609, 1620, 1625, 1628, 1630, 1631, 1632, 1633, 1634, 1635, 1643, 1660
 1663, 1666, 1667, 1669, 1672, 1676, 1685, 1688, 1690, 1698, 1700, 1714, 1715, 1716, 1719, 1721
 1722, 1729, 1734, 1736, 1738, 1739, 1743, 1764, 1765, 1766, 1772, 1773, 1777, 1778, 1781, 1784
 1788, 1789, 1792, 1793, 1794, 1795, 1798, 1800, 1801, 1802, 1804, 1808, 1810, 1811, 1812, 1820
 1822, 1823, 1826, 1828, 1830, 1832, 1835, 1836, 1837, 1840, 1841, 1843, 1845, 1851, 1856, 1859
 1860, 1862, 1863, 1866, 1868, 1874, 1881, 1884, 1886, 1887, 1890, 1897, 1899, 1900, 1901, 1907
*Elset, elset=__PickedSurf283_S2, internal, instance="notch bottom-1"
   44,   53,   65,   70,   72,   75,   76,   77,   79,   83,   86,   88,   98,  100,  102,  108
  115,  117,  137,  139,  140,  141,  149,  152,  159,  160,  163,  175,  181,  187,  206,  230
  231,  235,  237,  239,  254,  269,  274,  288,  299,  302,  310,  319,  328,  367,  376,  388
  409,  455,  626,  665,  668,  753,  827, 1060, 1150, 1306, 1326, 1535, 1646, 1829, 1855
*Elset, elset=__PickedSurf283_S1, internal, instance="notch bottom-1"
   46,   48,   55,   56,   63,   73,   78,   96,   99,  101,  105,  113,  130,  156,  169,  171
  172,  173,  201,  202,  208,  217,  219,  222,  242,  248,  250,  270,  272,  279,  289,  307
  337,  338,  369,  374,  401,  410,  441,  482,  485,  489,  494,  534,  822,  926,  931,  948
 1005, 1058, 1144, 1320, 1332, 1340, 1591, 1655, 1818, 1842, 1872
*Elset, elset=__PickedSurf283_S4, internal, instance="notch bottom-1"
   51,   61,   67,   95,   97,  114,  155,  191,  195,  211,  220,  225,  244,  265,  306,  344
  350,  351,  353,  371,  381,  438,  585,  603,  788,  842,  864,  921,  952, 1151, 1176, 1193
 1214, 1293, 1296, 1311, 1318, 1335, 1336, 1441, 1446, 1449, 1553, 1827
*Surface, type=ELEMENT, name=_PickedSurf283, internal
__PickedSurf283_S3, S3
__PickedSurf283_S2, S2
__PickedSurf283_S4, S4
__PickedSurf283_S1, S1
*Elset, elset=__PickedSurf284_S1, internal, instance="notch middle-1", generate
   1,  272,    1
*Surface, type=ELEMENT, name=_PickedSurf284, internal
__PickedSurf284_S1, S1
*Elset, elset=__PickedSurf285_S2, internal, instance="notch top-1"
    1,   10,   12,   15,   20,   33,   34,   50,   53,   60,   63,   64,   71,   84,   95,   98
  102,  112,  113,  119,  122,  124,  128,  129,  149,  159,  165,  174,  177,  183,  185,  190
  211,  215,  216,  227,  237,  239,  252,  257,  259,  347,  351,  379,  388,  411,  417,  418
  427,  452,  470,  471,  485,  657,  816,  819,  964,  965,  968,  976,  982,  984,  986,  995
  996, 1004, 1006, 1014, 1015, 1021, 1025, 1028, 1030, 1033, 1034, 1038, 1043, 1044, 1047, 1050
 1069, 1079, 1085, 1088, 1093, 1105, 1106, 1113, 1119, 1120, 1121, 1137, 1139, 1160, 1190, 1207
 1215, 1238, 1240, 1285, 1302, 1314, 1316, 1335, 1349, 1360, 1362, 1412, 1448, 1456, 1465, 1471
 1490, 1493, 1494, 1496, 1510, 1521, 1522, 1532, 1538, 1542, 1543, 1544, 1551, 1559, 1560, 1579
 1585, 1586, 1593, 1595, 1598, 1600, 1601, 1605, 1607, 1609, 1626, 1632, 1633, 1670, 1674, 1680
 1696, 1702, 1745, 1754, 1767, 1782, 1789, 1807, 1816, 1822, 1832, 1846, 1849, 1850, 1870, 1884
 1893,
*Elset, elset=__PickedSurf285_S1, internal, instance="notch top-1"
    6,   21,   27,   31,   36,   37,   41,   51,   67,   75,   85,   87,   97,  116,  136,  138
  140,  163,  167,  168,  181,  188,  205,  212,  260,  265,  299,  308,  316,  344,  380,  383
  390,  400,  415,  428,  439,  449,  459,  465,  482,  484,  488,  599,  660,  721,  822,  953
  959,  987,  992, 1000, 1003, 1011, 1012, 1048, 1055, 1059, 1061, 1064, 1067, 1068, 1073, 1083
 1094, 1101, 1104, 1116, 1124, 1132, 1144, 1174, 1175, 1181, 1197, 1199, 1250, 1269, 1290, 1332
 1345, 1346, 1351, 1354, 1356, 1379, 1394, 1396, 1413, 1433, 1434, 1445, 1451, 1464, 1468, 1476
 1489, 1497, 1502, 1506, 1514, 1527, 1531, 1536, 1541, 1545, 1553, 1563, 1567, 1570, 1591, 1599
 1606, 1612, 1664, 1669, 1715, 1730, 1743, 1757, 1794, 1836, 1847, 1876
*Elset, elset=__PickedSurf285_S4, internal, instance="notch top-1"
   13,   16,   17,   24,   35,   47,   58,   61,   76,   93,  100,  104,  105,  123,  139,  161
  182,  198,  251,  302,  314,  329,  331,  364,  434,  463,  478,  479,  532,  606,  782,  830
  858,  875,  923,  979,  994, 1022, 1032, 1036, 1063, 1075, 1078, 1081, 1090, 1096, 1143, 1300
 1305, 1309, 1324, 1339, 1340, 1343, 1344, 1382, 1454, 1458, 1460, 1463, 1474, 1481, 1482, 1507
 1513, 1540, 1549, 1554, 1557, 1572, 1573, 1578, 1649, 1720, 1733, 1740, 1761, 1778, 1793, 1795
 1809, 1829, 1833, 1901, 1903
*Elset, elset=__PickedSurf285_S3, internal, instance="notch top-1"
   19,   38,   39,  487,  494,  511,  538,  542,  552,  553,  571,  576,  586,  588,  589,  602
  604,  610,  632,  634,  635,  659,  661,  669,  672,  673,  676,  677,  680,  685,  689,  693
  712,  733,  737,  739,  740,  741,  742,  755,  758,  760,  761,  767,  768,  770,  780,  781
  791,  803,  807,  808,  809,  812,  815,  817,  821,  826,  828,  831,  833,  836,  839,  840
  842,  844,  845,  846,  847,  848,  852,  859,  860,  868,  872,  873,  874,  878,  879,  884
  886,  888,  889,  890,  892,  894,  895,  896,  898,  901,  902,  906,  908,  910,  913,  915
  919,  921,  922,  927,  929,  933,  935,  937,  938,  945,  947,  954,  955, 1023, 1049, 1095
 1109, 1427, 1446, 1524, 1705, 1824
*Surface, type=ELEMENT, name=_PickedSurf285, internal
__PickedSurf285_S2, S2
__PickedSurf285_S1, S1
__PickedSurf285_S4, S4
__PickedSurf285_S3, S3
*Elset, elset=__PickedSurf286_S2, internal, instance=top-1
  385,  386,  387,  388,  389,  390,  391,  392,  393,  394,  395,  396,  397,  398,  399,  400
  401,  402,  403,  404,  405,  406,  407,  408,  409,  410,  411,  412,  413,  414,  415,  416
  417,  418,  419,  420,  421,  422,  423,  424,  425,  426,  427,  428,  429,  430,  431,  432
  433,  434,  435,  436,  437,  438,  439,  440,  441,  442,  443,  444,  445,  446,  447,  448
  449,  450,  451,  452,  453,  454,  455,  456,  457,  458,  459,  460,  461,  462,  463,  464
  465,  466,  467,  468,  469,  470,  471,  472,  473,  474,  475,  476,  477,  478,  479,  480
  865,  866,  867,  868,  869,  870,  871,  872,  873,  874,  875,  876,  877,  878,  879,  880
  881,  882,  883,  884,  885,  886,  887,  888,  889,  890,  891,  892,  893,  894,  895,  896
  897,  898,  899,  900,  901,  902,  903,  904,  905,  906,  907,  908,  909,  910,  911,  912
  913,  914,  915,  916,  917,  918,  919,  920,  921,  922,  923,  924,  925,  926,  927,  928
  929,  930,  931,  932,  933,  934,  935,  936,  937,  938,  939,  940,  941,  942,  943,  944
  945,  946,  947,  948,  949,  950,  951,  952,  953,  954,  955,  956,  957,  958,  959,  960
 1345, 1346, 1347, 1348, 1349, 1350, 1351, 1352, 1353, 1354, 1355, 1356, 1357, 1358, 1359, 1360
 1361, 1362, 1363, 1364, 1365, 1366, 1367, 1368, 1369, 1370, 1371, 1372, 1373, 1374, 1375, 1376
 1377, 1378, 1379, 1380, 1381, 1382, 1383, 1384, 1385, 1386, 1387, 1388, 1389, 1390, 1391, 1392
 1393, 1394, 1395, 1396, 1397, 1398, 1399, 1400, 1401, 1402, 1403, 1404, 1405, 1406, 1407, 1408
 1409, 1410, 1411, 1412, 1413, 1414, 1415, 1416, 1417, 1418, 1419, 1420, 1421, 1422, 1423, 1424
 1425, 1426, 1427, 1428, 1429, 1430, 1431, 1432, 1433, 1434, 1435, 1436, 1437, 1438, 1439, 1440
 1825, 1826, 1827, 1828, 1829, 1830, 1831, 1832, 1833, 1834, 1835, 1836, 1837, 1838, 1839, 1840
 1841, 1842, 1843, 1844, 1845, 1846, 1847, 1848, 1849, 1850, 1851, 1852, 1853, 1854, 1855, 1856
** ... 4 like lines cut
*Surface, type=ELEMENT, name=_PickedSurf286, internal
__PickedSurf286_S2, S2
*Elset, elset=__PickedSurf287_S1, internal, instance="notch top-1"
   22,   74,  103,  143,  166,  169,  278,  431,  432,  473,  490,  493,  496,  499,  504,  513
  518,  535,  539,  544,  559,  562,  566,  567,  579,  593,  603,  614,  617,  633,  648,  650
  670,  688,  702,  709,  715,  732,  735,  759,  762,  773,  778,  789,  795,  796,  797,  800
  804,  811,  818,  820,  824,  841,  843,  853,  855,  863,  866,  870,  882,  893,  912,  926
  931,  942,  943,  944,  946, 1052, 1077, 1195, 1275, 1338, 1420, 1550, 1556, 1604, 1700, 1790
 1802, 1815, 1817, 1892
*Elset, elset=__PickedSurf287_S2, internal, instance="notch top-1"
  108,  268,  284,  292,  301,  307,  330,  345,  352,  371,  393,  406,  498,  503,  505,  506
  508,  510,  512,  514,  517,  519,  533,  534,  536,  550,  555,  557,  568,  572,  574,  578
  581,  592,  594,  601,  612,  613,  616,  624,  627,  628,  630,  637,  640,  641,  642,  647
  653,  664,  666,  675,  687,  690,  691,  697,  701,  705,  706,  716,  717,  720,  736,  744
  766,  775,  783,  806,  827,  829,  851,  862,  887,  918,  924,  928,  936,  940,  948,  980
 1082, 1230, 1263, 1295, 1315, 1378, 1393, 1401, 1430, 1539, 1635, 1641, 1647, 1681, 1686, 1724
 1753, 1766, 1792, 1838, 1840, 1860
*Elset, elset=__PickedSurf287_S4, internal, instance="notch top-1"
    5,   26,   55,  146,  153,  158,  184,  200,  222,  240,  263,  270,  288,  309,  339,  342
  385,  391,  500,  502,  515,  524,  526,  541,  551,  564,  575,  595,  643,  651,  671,  683
  704,  708,  723,  729,  731,  745,  751,  786,  857,  897,  907,  920,  925,  930,  934,  941
  962, 1019, 1117, 1141, 1236, 1237, 1262, 1274, 1342, 1365, 1367, 1370, 1417, 1419, 1441, 1480
 1519, 1683, 1689, 1693, 1734, 1771, 1785, 1888, 1895
*Elset, elset=__PickedSurf287_S3, internal, instance="notch top-1"
    3,    7,   44,   79,   80,   81,   86,   88,  101,  106,  114,  115,  117,  118,  120,  126
  130,  132,  134,  135,  141,  144,  147,  148,  151,  154,  155,  157,  160,  162,  171,  178
  197,  203,  209,  217,  224,  228,  229,  230,  233,  238,  244,  246,  249,  253,  261,  266
  269,  273,  274,  279,  282,  293,  298,  300,  303,  304,  306,  312,  315,  318,  321,  322
  323,  326,  332,  333,  334,  335,  338,  340,  343,  346,  353,  355,  357,  358,  359,  363
  368,  369,  370,  374,  375,  377,  381,  389,  397,  398,  399,  401,  402,  404,  410,  412
  413,  416,  419,  420,  421,  422,  424,  429,  430,  435,  441,  442,  443,  445,  446,  447
  448,  450,  451,  454,  455,  456,  460,  461,  462,  464,  466,  467,  468,  469,  477,  480
  481,  483,  625,  694,  718,  728,  877,  975,  977,  978,  989,  990, 1009, 1026, 1027, 1035
 1040, 1045, 1054, 1056, 1058, 1062, 1065, 1066, 1076, 1089, 1108, 1112, 1114, 1118, 1123, 1126
 1129, 1131, 1133, 1136, 1138, 1146, 1147, 1155, 1156, 1157, 1158, 1166, 1168, 1170, 1182, 1184
 1185, 1186, 1189, 1204, 1208, 1209, 1211, 1216, 1217, 1218, 1220, 1223, 1224, 1231, 1244, 1245
 1249, 1254, 1260, 1264, 1265, 1270, 1273, 1277, 1279, 1280, 1283, 1284, 1287, 1292, 1293, 1296
 1297, 1298, 1303, 1304, 1307, 1308, 1312, 1313, 1320, 1321, 1322, 1323, 1325, 1326, 1327, 1328
 1329, 1330, 1331, 1333, 1337, 1341, 1347, 1348, 1352, 1353, 1357, 1358, 1359, 1361, 1371, 1372
 1373, 1374, 1377, 1380, 1384, 1385, 1386, 1387, 1388, 1389, 1390, 1391, 1392, 1398, 1399, 1400
 1403, 1406, 1407, 1408, 1414, 1415, 1416, 1418, 1422, 1423, 1425, 1426, 1429, 1432, 1435, 1436
 1437, 1438, 1439, 1462, 1466, 1467, 1503, 1512, 1516, 1518, 1525, 1528, 1529, 1530, 1535, 1537
 1552, 1564, 1569, 1571, 1584, 1588, 1590, 1602, 1608, 1616, 1619, 1620, 1621, 1627, 1642, 1644
 1646, 1650, 1653, 1654, 1658, 1661, 1662, 1665, 1672, 1677, 1678, 1679, 1685, 1687, 1690, 1694
** ... 6 like lines cut
*Surface, type=ELEMENT, name=_PickedSurf287, internal
__PickedSurf287_S1, S1
__PickedSurf287_S2, S2
__PickedSurf287_S4, S4
__PickedSurf287_S3, S3
*Elset, elset=__PickedSurf318_S2, internal, instance=bottom-1
  385,  386,  387,  388,  389,  390,  391,  392,  393,  394,  395,  396,  397,  398,  399,  400
  401,  402,  403,  404,  405,  406,  407,  408,  409,  410,  411,  412,  413,  414,  415,  416
  417,  418,  419,  420,  421,  422,  423,  424,  425,  426,  427,  428,  429,  430,  431,  432
  433,  434,  435,  436,  437,  438,  439,  440,  441,  442,  443,  444,  445,  446,  447,  448
  449,  450,  451,  452,  453,  454,  455,  456,  457,  458,  459,  460,  461,  462,  463,  464
  465,  466,  467,  468,  469,  470,  471,  472,  473,  474,  475,  476,  477,  478,  479,  480
  865,  866,  867,  868,  869,  870,  871,  872,  873,  874,  875,  876,  877,  878,  879,  880
  881,  882,  883,  884,  885,  886,  887,  888,  889,  890,  891,  892,  893,  894,  895,  896
  897,  898,  899,  900,  901,  902,  903,  904,  905,  906,  907,  908,  909,  910,  911,  912
  913,  914,  915,  916,  917,  918,  919,  920,  921,  922,  923,  924,  925,  926,  927,  928
  929,  930,  931,  932,  933,  934,  935,  936,  937,  938,  939,  940,  941,  942,  943,  944
  945,  946,  947,  948,  949,  950,  951,  952,  953,  954,  955,  956,  957,  958,  959,  960
 1345, 1346, 1347, 1348, 1349, 1350, 1351, 1352, 1353, 1354, 1355, 1356, 1357, 1358, 1359, 1360
 1361, 1362, 1363, 1364, 1365, 1366, 1367, 1368, 1369, 1370, 1371, 1372, 1373, 1374, 1375, 1376
 1377, 1378, 1379, 1380, 1381, 1382, 1383, 1384, 1385, 1386, 1387, 1388, 1389, 1390, 1391, 1392
 1393, 1394, 1395, 1396, 1397, 1398, 1399, 1400, 1401, 1402, 1403, 1404, 1405, 1406, 1407, 1408
 1409, 1410, 1411, 1412, 1413, 1414, 1415, 1416, 1417, 1418, 1419, 1420, 1421, 1422, 1423, 1424
 1425, 1426, 1427, 1428, 1429, 1430, 1431, 1432, 1433, 1434, 1435, 1436, 1437, 1438, 1439, 1440
 1825, 1826, 1827, 1828, 1829, 1830, 1831, 1832, 1833, 1834, 1835, 1836, 1837, 1838, 1839, 1840
 1841, 1842, 1843, 1844, 1845, 1846, 1847, 1848, 1849, 1850, 1851, 1852, 1853, 1854, 1855, 1856
** ... 4 like lines cut
*Surface, type=ELEMENT, name=_PickedSurf318, internal
__PickedSurf318_S2, S2
*Elset, elset=__PickedSurf320_S1, internal, instance=top-1
    1,    2,    3,    4,    5,    6,    7,    8,    9,   10,   11,   12,   13,   14,   15,   16
   17,   18,   19,   20,   21,   22,   23,   24,   25,   26,   27,   28,   29,   30,   31,   32
   33,   34,   35,   36,   37,   38,   39,   40,   41,   42,   43,   44,   45,   46,   47,   48
   49,   50,   51,   52,   53,   54,   55,   56,   57,   58,   59,   60,   61,   62,   63,   64
   65,   66,   67,   68,   69,   70,   71,   72,   73,   74,   75,   76,   77,   78,   79,   80
   81,   82,   83,   84,   85,   86,   87,   88,   89,   90,   91,   92,   93,   94,   95,   96
  481,  482,  483,  484,  485,  486,  487,  488,  489,  490,  491,  492,  493,  494,  495,  496
  497,  498,  499,  500,  501,  502,  503,  504,  505,  506,  507,  508,  509,  510,  511,  512
  513,  514,  515,  516,  517,  518,  519,  520,  521,  522,  523,  524,  525,  526,  527,  528
  529,  530,  531,  532,  533,  534,  535,  536,  537,  538,  539,  540,  541,  542,  543,  544
  545,  546,  547,  548,  549,  550,  551,  552,  553,  554,  555,  556,  557,  558,  559,  560
  561,  562,  563,  564,  565,  566,  567,  568,  569,  570,  571,  572,  573,  574,  575,  576
  961,  962,  963,  964,  965,  966,  967,  968,  969,  970,  971,  972,  973,  974,  975,  976
  977,  978,  979,  980,  981,  982,  983,  984,  985,  986,  987,  988,  989,  990,  991,  992
  993,  994,  995,  996,  997,  998,  999, 1000, 1001, 1002, 1003, 1004, 1005, 1006, 1007, 1008
 1009, 1010, 1011, 1012, 1013, 1014, 1015, 1016, 1017, 1018, 1019, 1020, 1021, 1022, 1023, 1024
 1025, 1026, 1027, 1028, 1029, 1030, 1031, 1032, 1033, 1034, 1035, 1036, 1037, 1038, 1039, 1040
 1041, 1042, 1043, 1044, 1045, 1046, 1047, 1048, 1049, 1050, 1051, 1052, 1053, 1054, 1055, 1056
 1441, 1442, 1443, 1444, 1445, 1446, 1447, 1448, 1449, 1450, 1451, 1452, 1453, 1454, 1455, 1456
 1457, 1458, 1459, 1460, 1461, 1462, 1463, 1464, 1465, 1466, 1467, 1468, 1469, 1470, 1471, 1472
** ... 4 like lines cut
*Surface, type=ELEMENT, name=_PickedSurf320, internal
__PickedSurf320_S1, S1
*Elset, elset=__PickedSurf339_S2, internal, instance="top plate-1"
  961,  962,  963,  964,  965,  966,  967,  968,  969,  970,  971,  972,  973,  974,  975,  976
  977,  978,  979,  980,  981,  982,  983,  984,  985,  986,  987,  988,  989,  990,  991,  992
  993,  994,  995,  996,  997,  998,  999, 1000, 1001, 1002, 1003, 1004, 1005, 1006, 1007, 1008
 1009, 1010, 1011, 1012, 1013, 1014, 1015, 1016, 1017, 1018, 1019, 1020, 1021, 1022, 1023, 1024
 1025, 1026, 1027, 1028, 1029, 1030, 1031, 1032, 1033, 1034, 1035, 1036, 1037, 1038, 1039, 1040
 1041, 1042, 1043, 1044, 1045, 1046, 1047, 1048, 1049, 1050, 1051, 1052, 1053, 1054, 1055, 1056
 2017, 2018, 2019, 2020, 2021, 2022, 2023, 2024, 2025, 2026, 2027, 2028, 2029, 2030, 2031, 2032
 2033, 2034, 2035, 2036, 2037, 2038, 2039, 2040, 2041, 2042, 2043, 2044, 2045, 2046, 2047, 2048
 2049, 2050, 2051, 2052, 2053, 2054, 2055, 2056, 2057, 2058, 2059, 2060, 2061, 2062, 2063, 2064
 2065, 2066, 2067, 2068, 2069, 2070, 2071, 2072, 2073, 2074, 2075, 2076, 2077, 2078, 2079, 2080
 2081, 2082, 2083, 2084, 2085, 2086, 2087, 2088, 2089, 2090, 2091, 2092, 2093, 2094, 2095, 2096
 2097, 2098, 2099, 2100, 2101, 2102, 2103, 2104, 2105, 2106, 2107, 2108, 2109, 2110, 2111, 2112
 3073, 3074, 3075, 3076, 3077, 3078, 3079, 3080, 3081, 3082, 3083, 3084, 3085, 3086, 3087, 3088
 3089, 3090, 3091, 3092, 3093, 3094, 3095, 3096, 3097, 3098, 3099, 3100, 3101, 3102, 3103, 3104
 3105, 3106, 3107, 3108, 3109, 3110, 3111, 3112, 3113, 3114, 3115, 3116, 3117, 3118, 3119, 3120
 3121, 3122, 3123, 3124, 3125, 3126, 3127, 3128, 3129, 3130, 3131, 3132, 3133, 3134, 3135, 3136
 3137, 3138, 3139, 3140, 3141, 3142, 3143, 3144, 3145, 3146, 3147, 3148, 3149, 3150, 3151, 3152
 3153, 3154, 3155, 3156, 3157, 3158, 3159, 3160, 3161, 3162, 3163, 3164, 3165, 3166, 3167, 3168
 4129, 4130, 4131, 4132, 4133, 4134, 4135, 4136, 4137, 4138, 4139, 4140, 4141, 4142, 4143, 4144
 4145, 4146, 4147, 4148, 4149, 4150, 4151, 4152, 4153, 4154, 4155, 4156, 4157, 4158, 4159, 4160
** ... 4 like lines cut
*Surface, type=ELEMENT, name=_PickedSurf339, internal
__PickedSurf339_S2, S2
*Elset, elset=__PickedSurf340_S1, internal, instance="bottom plate-1"
    1,    2,    3,    4,    5,    6,    7,    8,    9,   10,   11,   12,   13,   14,   15,   16
   17,   18,   19,   20,   21,   22,   23,   24,   25,   26,   27,   28,   29,   30,   31,   32
   33,   34,   35,   36,   37,   38,   39,   40,   41,   42,   43,   44,   45,   46,   47,   48
   49,   50,   51,   52,   53,   54,   55,   56,   57,   58,   59,   60,   61,   62,   63,   64
   65,   66,   67,   68,   69,   70,   71,   72,   73,   74,   75,   76,   77,   78,   79,   80
   81,   82,   83,   84,   85,   86,   87,   88,   89,   90,   91,   92,   93,   94,   95,   96
 1057, 1058, 1059, 1060, 1061, 1062, 1063, 1064, 1065, 1066, 1067, 1068, 1069, 1070, 1071, 1072
 1073, 1074, 1075, 1076, 1077, 1078, 1079, 1080, 1081, 1082, 1083, 1084, 1085, 1086, 1087, 1088
 1089, 1090, 1091, 1092, 1093, 1094, 1095, 1096, 1097, 1098, 1099, 1100, 1101, 1102, 1103, 1104
 1105, 1106, 1107, 1108, 1109, 1110, 1111, 1112, 1113, 1114, 1115, 1116, 1117, 1118, 1119, 1120
 1121, 1122, 1123, 1124, 1125, 1126, 1127, 1128, 1129, 1130, 1131, 1132, 1133, 1134, 1135, 1136
 1137, 1138, 1139, 1140, 1141, 1142, 1143, 1144, 1145, 1146, 1147, 1148, 1149, 1150, 1151, 1152
 2113, 2114, 2115, 2116, 2117, 2118, 2119, 2120, 2121, 2122, 2123, 2124, 2125, 2126, 2127, 2128
 2129, 2130, 2131, 2132, 2133, 2134, 2135, 2136, 2137, 2138, 2139, 2140, 2141, 2142, 2143, 2144
 2145, 2146, 2147, 2148, 2149, 2150, 2151, 2152, 2153, 2154, 2155, 2156, 2157, 2158, 2159, 2160
 2161, 2162, 2163, 2164, 2165, 2166, 2167, 2168, 2169, 2170, 2171, 2172, 2173, 2174, 2175, 2176
 2177, 2178, 2179, 2180, 2181, 2182, 2183, 2184, 2185, 2186, 2187, 2188, 2189, 2190, 2191, 2192
 2193, 2194, 2195, 2196, 2197, 2198, 2199, 2200, 2201, 2202, 2203, 2204, 2205, 2206, 2207, 2208
 3169, 3170, 3171, 3172, 3173, 3174, 3175, 3176, 3177, 3178, 3179, 3180, 3181, 3182, 3183, 3184
 3185, 3186, 3187, 3188, 3189, 3190, 3191, 3192, 3193, 3194, 3195, 3196, 3197, 3198, 3199, 3200
** ... 4 like lines cut
*Surface, type=ELEMENT, name=_PickedSurf340, internal
__PickedSurf340_S1, S1
*Elset, elset=__PickedSurf360_SPOS, internal, instance="bottom rigid-1", generate
   1,  387,    1
*Surface, type=ELEMENT, name=_PickedSurf360, internal
__PickedSurf360_SPOS, SPOS
*Elset, elset=__PickedSurf361_S2, internal, instance="bottom plate-1"
  961,  962,  963,  964,  965,  966,  967,  968,  969,  970,  971,  972,  973,  974,  975,  976
  977,  978,  979,  980,  981,  982,  983,  984,  985,  986,  987,  988,  989,  990,  991,  992
  993,  994,  995,  996,  997,  998,  999, 1000, 1001, 1002, 1003, 1004, 1005, 1006, 1007, 1008
 1009, 1010, 1011, 1012, 1013, 1014, 1015, 1016, 1017, 1018, 1019, 1020, 1021, 1022, 1023, 1024
 1025, 1026, 1027, 1028, 1029, 1030, 1031, 1032, 1033, 1034, 1035, 1036, 1037, 1038, 1039, 1040
 1041, 1042, 1043, 1044, 1045, 1046, 1047, 1048, 1049, 1050, 1051, 1052, 1053, 1054, 1055, 1056
 2017, 2018, 2019, 2020, 2021, 2022, 2023, 2024, 2025, 2026, 2027, 2028, 2029, 2030, 2031, 2032
 2033, 2034, 2035, 2036, 2037, 2038, 2039, 2040, 2041, 2042, 2043, 2044, 2045, 2046, 2047, 2048
 2049, 2050, 2051, 2052, 2053, 2054, 2055, 2056, 2057, 2058, 2059, 2060, 2061, 2062, 2063, 2064
 2065, 2066, 2067, 2068, 2069, 2070, 2071, 2072, 2073, 2074, 2075, 2076, 2077, 2078, 2079, 2080
 2081, 2082, 2083, 2084, 2085, 2086, 2087, 2088, 2089, 2090, 2091, 2092, 2093, 2094, 2095, 2096
 2097, 2098, 2099, 2100, 2101, 2102, 2103, 2104, 2105, 2106, 2107, 2108, 2109, 2110, 2111, 2112
 3073, 3074, 3075, 3076, 3077, 3078, 3079, 3080, 3081, 3082, 3083, 3084, 3085, 3086, 3087, 3088
 3089, 3090, 3091, 3092, 3093, 3094, 3095, 3096, 3097, 3098, 3099, 3100, 3101, 3102, 3103, 3104
 3105, 3106, 3107, 3108, 3109, 3110, 3111, 3112, 3113, 3114, 3115, 3116, 3117, 3118, 3119, 3120
 3121, 3122, 3123, 3124, 3125, 3126, 3127, 3128, 3129, 3130, 3131, 3132, 3133, 3134, 3135, 3136
 3137, 3138, 3139, 3140, 3141, 3142, 3143, 3144, 3145, 3146, 3147, 3148, 3149, 3150, 3151, 3152
 3153, 3154, 3155, 3156, 3157, 3158, 3159, 3160, 3161, 3162, 3163, 3164, 3165, 3166, 3167, 3168
 4129, 4130, 4131, 4132, 4133, 4134, 4135, 4136, 4137, 4138, 4139, 4140, 4141, 4142, 4143, 4144
 4145, 4146, 4147, 4148, 4149, 4150, 4151, 4152, 4153, 4154, 4155, 4156, 4157, 4158, 4159, 4160
** ... 4 like lines cut
*Surface, type=ELEMENT, name=_PickedSurf361, internal
__PickedSurf361_S2, S2
*Elset, elset=__PickedSurf362_SPOS, internal, instance="top rigid-1", generate
 452,  818,    1
*Surface, type=ELEMENT, name=_PickedSurf362, internal
__PickedSurf362_SPOS, SPOS
*Elset, elset=__PickedSurf363_S1, internal, instance="top plate-1"
    1,    2,    3,    4,    5,    6,    7,    8,    9,   10,   11,   12,   13,   14,   15,   16
   17,   18,   19,   20,   21,   22,   23,   24,   25,   26,   27,   28,   29,   30,   31,   32
   33,   34,   35,   36,   37,   38,   39,   40,   41,   42,   43,   44,   45,   46,   47,   48
   49,   50,   51,   52,   53,   54,   55,   56,   57,   58,   59,   60,   61,   62,   63,   64
   65,   66,   67,   68,   69,   70,   71,   72,   73,   74,   75,   76,   77,   78,   79,   80
   81,   82,   83,   84,   85,   86,   87,   88,   89,   90,   91,   92,   93,   94,   95,   96
 1057, 1058, 1059, 1060, 1061, 1062, 1063, 1064, 1065, 1066, 1067, 1068, 1069, 1070, 1071, 1072
 1073, 1074, 1075, 1076, 1077, 1078, 1079, 1080, 1081, 1082, 1083, 1084, 1085, 1086, 1087, 1088
 1089, 1090, 1091, 1092, 1093, 1094, 1095, 1096, 1097, 1098, 1099, 1100, 1101, 1102, 1103, 1104
 1105, 1106, 1107, 1108, 1109, 1110, 1111, 1112, 1113, 1114, 1115, 1116, 1117, 1118, 1119, 1120
 1121, 1122, 1123, 1124, 1125, 1126, 1127, 1128, 1129, 1130, 1131, 1132, 1133, 1134, 1135, 1136
 1137, 1138, 1139, 1140, 1141, 1142, 1143, 1144, 1145, 1146, 1147, 1148, 1149, 1150, 1151, 1152
 2113, 2114, 2115, 2116, 2117, 2118, 2119, 2120, 2121, 2122, 2123, 2124, 2125, 2126, 2127, 2128
 2129, 2130, 2131, 2132, 2133, 2134, 2135, 2136, 2137, 2138, 2139, 2140, 2141, 2142, 2143, 2144
 2145, 2146, 2147, 2148, 2149, 2150, 2151, 2152, 2153, 2154, 2155, 2156, 2157, 2158, 2159, 2160
 2161, 2162, 2163, 2164, 2165, 2166, 2167, 2168, 2169, 2170, 2171, 2172, 2173, 2174, 2175, 2176
 2177, 2178, 2179, 2180, 2181, 2182, 2183, 2184, 2185, 2186, 2187, 2188, 2189, 2190, 2191, 2192
 2193, 2194, 2195, 2196, 2197, 2198, 2199, 2200, 2201, 2202, 2203, 2204, 2205, 2206, 2207, 2208
 3169, 3170, 3171, 3172, 3173, 3174, 3175, 3176, 3177, 3178, 3179, 3180, 3181, 3182, 3183, 3184
 3185, 3186, 3187, 3188, 3189, 3190, 3191, 3192, 3193, 3194, 3195, 3196, 3197, 3198, 3199, 3200
** ... 4 like lines cut
*Surface, type=ELEMENT, name=_PickedSurf363, internal
__PickedSurf363_S1, S1
*Rigid Body, ref node="bottom rigid-1"."bottom rigid-RefPt_", elset="bottom rigid-1"."bottom rigid"
*Rigid Body, ref node="top rigid-1"."top rigid-RefPt_", elset="top rigid-1"."top rigid"
** Constraint: Constraint-1
*Tie, name=Constraint-1, adjust=yes
_PickedSurf273, _PickedSurf272
** Constraint: Constraint-2
*Tie, name=Constraint-2, adjust=yes
_PickedSurf283, _PickedSurf282
** Constraint: Constraint-3
*Tie, name=Constraint-3, adjust=yes
_PickedSurf285, _PickedSurf284
** Constraint: Constraint-4
*Tie, name=Constraint-4, adjust=yes
_PickedSurf287, _PickedSurf286
** Constraint: Constraint-5
*Tie, name=Constraint-5, adjust=yes
_PickedSurf318, _PickedSurf340
** Constraint: Constraint-6
*Tie, name=Constraint-6, adjust=yes
_PickedSurf320, _PickedSurf339
** Constraint: Constraint-7
*Tie, name=Constraint-7, adjust=yes
_PickedSurf361, _PickedSurf360
** Constraint: Constraint-8
*Tie, name=Constraint-8, adjust=yes
_PickedSurf363, _PickedSurf362
*End Assembly
*Amplitude, name=Amp-1
             0.,              0.,             60.,           0.003,            120.,           0.006,            180.,           0.009
           240.,           0.012,            300.,           0.015,            360.,           0.018,            420.,           0.021
           480.,           0.024,            540.,           0.027,            600.,            0.03,            660.,           0.033
           720.,           0.036,            780.,           0.039,            840.,           0.042,            900.,           0.045
           960.,           0.048,           1020.,           0.051,           1080.,           0.054,           1140.,           0.057
          1200.,            0.06,           1260.,           0.063,           1320.,           0.066,           1380.,           0.069
          1440.,           0.072,           1500.,           0.075
** 
** MATERIALS
** 
*Material, name=material3-gentle
*Density
 2.35e-06,
*Elastic
48000., 0.2
*Concrete Damaged Plasticity
30.,   0.66,   1.15,    0.1, 0.0001
*Concrete Compression Hardening
  40.,          0.
 45.7, 0.000136039
 51.4, 0.000307157
 57.1, 0.000496433
 62.9,  0.00071127
 68.6, 0.000966107
 74.3,  0.00129822
  80.,      0.0021
 74.3,  0.00290178
 68.6,  0.00323389
 62.9,  0.00348873
 57.1,  0.00370357
 51.4,  0.00389284
 45.7,  0.00406396
  40.,  0.00422132
 34.3,  0.00436779
  16.,  0.00478328
 6.86,      0.0111
   0.,      0.0191
*Concrete Tension Stiffening, type=DISPLACEMENT
5.,    0.
0., 0.028
*Material, name=steel
*Density
 7.89e-06,
*Elastic
209000., 0.269
** ----------------------------------------------------------------
** 
** STEP: Step-1
** 
*Step, name=Step-1, nlgeom=NO, inc=10000
*Static
0.1, 1500., 0.0001, 1.
** 
** BOUNDARY CONDITIONS
** 
** Name: BC-1 Type: Displacement/Rotation
*Boundary, amplitude=Amp-1
_PickedSet358, 1, 1
_PickedSet358, 2, 2, 1.
_PickedSet358, 3, 3
** Name: BC-2 Type: Displacement/Rotation
*Boundary
_PickedSet359, 1, 1
_PickedSet359, 2, 2
_PickedSet359, 3, 3
** 
** OUTPUT REQUESTS
** 
*Restart, write, frequency=0
** 
** FIELD OUTPUT: bottom-224mm
** 
*Output, field, frequency=3
*Node Output, nset=bottom-224mm
UT, 
** 
** FIELD OUTPUT: bottom-4mm
** 
*Node Output, nset=bottom-4mm
UT, 
** 
** FIELD OUTPUT: bottom-50mm
** 
*Node Output, nset=bottom-50mm
UT, 
** 
** FIELD OUTPUT: top-224mm
** 
*Node Output, nset=top-224mm
UT, 
** 
** FIELD OUTPUT: top-4mm
** 
*Node Output, nset=top-4mm
UT, 
** 
** FIELD OUTPUT: top-50mm
** 
*Node Output, nset=top-50mm
UT, 
** 
** FIELD OUTPUT: F-Output-1
** 
*Output, field, variable=PRESELECT, frequency=3
*Output, history, frequency=0
*End Step
